MODEL 1
REMARK VINA RESULT:     -12.1      0.000      0.000
REMARK  7 active torsions:
REMARK  status: ('A' for Active; 'I' for Inactive)
REMARK    1  A    between atoms: C_4  and  C_25 
REMARK    2  A    between atoms: C_5  and  N_8 
REMARK    3  A    between atoms: N_8  and  C_10 
REMARK    4  A    between atoms: C_13  and  C_16 
REMARK    5  A    between atoms: C_16  and  N_17 
REMARK    6  A    between atoms: N_20  and  C_23 
REMARK    7  A    between atoms: N_28  and  C_36 
ROOT
HETATM    1  F   LIG     1     -26.440  19.098  12.918  1.00  0.00    -0.201 F 
HETATM    2  N   LIG     1     -29.377  19.191  10.817  1.00  0.00    -0.059 NA
HETATM    3  N   LIG     1     -29.370  17.194  12.075  1.00  0.00    -0.057 NA
HETATM    4  C   LIG     1     -28.209  19.592  11.365  1.00  0.00     0.129 A 
HETATM    5  C   LIG     1     -29.940  18.019  11.180  1.00  0.00     0.729 A 
HETATM    6  C   LIG     1     -27.587  18.790  12.310  1.00  0.00     0.178 A 
HETATM    7  C   LIG     1     -28.214  17.607  12.626  1.00  0.00     0.149 A 
ENDROOT
BRANCH   5   8
HETATM    8  N   LIG     1     -31.144  17.627  10.622  1.00  0.00    -0.170 N 
HETATM    9  H   LIG     1     -31.033  16.984   9.850  1.00  0.00     0.186 HD
BRANCH   8  10
HETATM   10  C   LIG     1     -32.383  18.260  10.657  1.00  0.00     0.156 A 
HETATM   11  C   LIG     1     -33.136  18.330  11.825  1.00  0.00     0.037 A 
HETATM   12  C   LIG     1     -34.325  19.045  11.854  1.00  0.00     0.002 A 
HETATM   13  C   LIG     1     -34.784  19.647  10.690  1.00  0.00     0.030 A 
HETATM   14  C   LIG     1     -34.013  19.481   9.547  1.00  0.00     0.098 A 
HETATM   15  N   LIG     1     -32.834  18.805   9.508  1.00  0.00    -0.227 NA
BRANCH  13  16
HETATM   16  C   LIG     1     -36.072  20.427  10.699  1.00  0.00     0.278 C 
BRANCH  16  17
HETATM   17  N   LIG     1     -35.974  21.771  10.107  1.00  0.00     0.146 N 
HETATM   18  C   LIG     1     -36.118  22.803  11.162  1.00  0.00     0.286 C 
HETATM   19  C   LIG     1     -37.558  22.965  11.714  1.00  0.00     0.285 C 
HETATM   20  N   LIG     1     -38.604  23.181  10.693  1.00  0.00     0.141 N 
HETATM   21  C   LIG     1     -38.445  22.170   9.619  1.00  0.00     0.285 C 
HETATM   22  C   LIG     1     -37.001  22.030   9.074  1.00  0.00     0.286 C 
BRANCH  20  23
HETATM   23  C   LIG     1     -38.595  24.540  10.123  1.00  0.00     0.251 C 
HETATM   24  C   LIG     1     -39.407  24.685   8.838  1.00  0.00     0.037 C 
ENDBRANCH  20  23
ENDBRANCH  16  17
ENDBRANCH  13  16
ENDBRANCH   8  10
ENDBRANCH   5   8
BRANCH   4  25
HETATM   25  C   LIG     1     -27.710  20.924  10.887  1.00  0.00     0.024 A 
HETATM   26  C   LIG     1     -27.127  21.071   9.618  1.00  0.00     0.033 A 
HETATM   27  C   LIG     1     -26.649  22.300   9.159  1.00  0.00     0.159 A 
HETATM   28  C   LIG     1     -26.746  23.436   9.970  1.00  0.00     0.126 A 
HETATM   29  F   LIG     1     -26.100  22.365   7.939  1.00  0.00    -0.203 F 
HETATM   30  C   LIG     1     -27.325  23.327  11.229  1.00  0.00     0.081 A 
HETATM   31  N   LIG     1     -26.338  24.715   9.727  1.00  0.00    -0.229 NA
HETATM   32  N   LIG     1     -27.273  24.619  11.747  1.00  0.00    -0.317 N 
HETATM   33  C   LIG     1     -27.808  22.084  11.705  1.00  0.00     0.021 A 
HETATM   34  C   LIG     1     -26.641  25.410  10.801  1.00  0.00     0.121 A 
HETATM   35  C   LIG     1     -26.325  26.855  10.925  1.00  0.00     0.072 C 
BRANCH  32  36
HETATM   36  C   LIG     1     -27.820  25.024  13.045  1.00  0.00     0.087 C 
HETATM   37  C   LIG     1     -28.839  24.052  13.654  1.00  0.00     0.025 C 
HETATM   38  C   LIG     1     -28.412  26.435  13.017  1.00  0.00     0.025 C 
ENDBRANCH  32  36
ENDBRANCH   4  25
TORSDOF 7
ENDMDL
MODEL 2
REMARK VINA RESULT:     -10.5      6.736     11.857
REMARK  7 active torsions:
REMARK  status: ('A' for Active; 'I' for Inactive)
REMARK    1  A    between atoms: C_4  and  C_25 
REMARK    2  A    between atoms: C_5  and  N_8 
REMARK    3  A    between atoms: N_8  and  C_10 
REMARK    4  A    between atoms: C_13  and  C_16 
REMARK    5  A    between atoms: C_16  and  N_17 
REMARK    6  A    between atoms: N_20  and  C_23 
REMARK    7  A    between atoms: N_28  and  C_36 
ROOT
HETATM    1  F   LIG     1     -38.607  26.088  10.546  1.00  0.00    -0.201 F 
HETATM    2  N   LIG     1     -40.067  22.998   9.375  1.00  0.00    -0.059 NA
HETATM    3  N   LIG     1     -41.345  24.822   8.591  1.00  0.00    -0.057 NA
HETATM    4  C   LIG     1     -39.210  23.820  10.021  1.00  0.00     0.129 A 
HETATM    5  C   LIG     1     -41.102  23.502   8.671  1.00  0.00     0.729 A 
HETATM    6  C   LIG     1     -39.399  25.192   9.955  1.00  0.00     0.178 A 
HETATM    7  C   LIG     1     -40.478  25.634   9.226  1.00  0.00     0.149 A 
ENDROOT
BRANCH   5   8
HETATM    8  N   LIG     1     -41.965  22.650   8.002  1.00  0.00    -0.170 N 
HETATM    9  H   LIG     1     -41.555  22.240   7.175  1.00  0.00     0.186 HD
BRANCH   8  10
HETATM   10  C   LIG     1     -43.355  22.601   8.029  1.00  0.00     0.156 A 
HETATM   11  C   LIG     1     -44.101  22.343   6.882  1.00  0.00     0.037 A 
HETATM   12  C   LIG     1     -45.480  22.209   6.955  1.00  0.00     0.002 A 
HETATM   13  C   LIG     1     -46.117  22.389   8.175  1.00  0.00     0.030 A 
HETATM   14  C   LIG     1     -45.316  22.708   9.264  1.00  0.00     0.098 A 
HETATM   15  N   LIG     1     -43.962  22.817   9.215  1.00  0.00    -0.227 NA
BRANCH  13  16
HETATM   16  C   LIG     1     -47.612  22.249   8.276  1.00  0.00     0.278 C 
BRANCH  16  17
HETATM   17  N   LIG     1     -48.108  20.872   8.114  1.00  0.00     0.146 N 
HETATM   18  C   LIG     1     -49.570  20.884   7.871  1.00  0.00     0.286 C 
HETATM   19  C   LIG     1     -50.429  21.229   9.115  1.00  0.00     0.285 C 
HETATM   20  N   LIG     1     -50.155  20.413  10.316  1.00  0.00     0.141 N 
HETATM   21  C   LIG     1     -48.690  20.373  10.547  1.00  0.00     0.285 C 
HETATM   22  C   LIG     1     -47.849  20.017   9.294  1.00  0.00     0.286 C 
BRANCH  20  23
HETATM   23  C   LIG     1     -50.698  19.046  10.233  1.00  0.00     0.251 C 
HETATM   24  C   LIG     1     -50.375  18.170  11.441  1.00  0.00     0.037 C 
ENDBRANCH  20  23
ENDBRANCH  16  17
ENDBRANCH  13  16
ENDBRANCH   8  10
ENDBRANCH   5   8
BRANCH   4  25
HETATM   25  C   LIG     1     -38.093  23.127  10.744  1.00  0.00     0.024 A 
HETATM   26  C   LIG     1     -37.434  23.738  11.823  1.00  0.00     0.033 A 
HETATM   27  C   LIG     1     -36.387  23.112  12.503  1.00  0.00     0.159 A 
HETATM   28  C   LIG     1     -35.965  21.835  12.117  1.00  0.00     0.126 A 
HETATM   29  F   LIG     1     -35.800  23.758  13.520  1.00  0.00    -0.203 F 
HETATM   30  C   LIG     1     -36.603  21.198  11.059  1.00  0.00     0.081 A 
HETATM   31  N   LIG     1     -34.969  21.057  12.630  1.00  0.00    -0.229 NA
HETATM   32  N   LIG     1     -35.958  19.969  10.955  1.00  0.00    -0.317 N 
HETATM   33  C   LIG     1     -37.662  21.826  10.360  1.00  0.00     0.021 A 
HETATM   34  C   LIG     1     -34.960  19.952  11.918  1.00  0.00     0.121 A 
HETATM   35  C   LIG     1     -33.985  18.860  12.162  1.00  0.00     0.072 C 
BRANCH  32  36
HETATM   36  C   LIG     1     -36.317  18.910  10.008  1.00  0.00     0.087 C 
HETATM   37  C   LIG     1     -36.854  17.622  10.645  1.00  0.00     0.025 C 
HETATM   38  C   LIG     1     -35.176  18.569   9.047  1.00  0.00     0.025 C 
ENDBRANCH  32  36
ENDBRANCH   4  25
TORSDOF 7
ENDMDL
MODEL 3
REMARK VINA RESULT:     -10.5      7.214     12.160
REMARK  7 active torsions:
REMARK  status: ('A' for Active; 'I' for Inactive)
REMARK    1  A    between atoms: C_4  and  C_25 
REMARK    2  A    between atoms: C_5  and  N_8 
REMARK    3  A    between atoms: N_8  and  C_10 
REMARK    4  A    between atoms: C_13  and  C_16 
REMARK    5  A    between atoms: C_16  and  N_17 
REMARK    6  A    between atoms: N_20  and  C_23 
REMARK    7  A    between atoms: N_28  and  C_36 
ROOT
HETATM    1  F   LIG     1     -38.946  25.830   9.697  1.00  0.00    -0.201 F 
HETATM    2  N   LIG     1     -40.305  22.539   9.087  1.00  0.00    -0.059 NA
HETATM    3  N   LIG     1     -42.022  24.149   8.900  1.00  0.00    -0.057 NA
HETATM    4  C   LIG     1     -39.388  23.488   9.379  1.00  0.00     0.129 A 
HETATM    5  C   LIG     1     -41.589  22.878   8.845  1.00  0.00     0.729 A 
HETATM    6  C   LIG     1     -39.773  24.819   9.429  1.00  0.00     0.178 A 
HETATM    7  C   LIG     1     -41.099  25.089   9.178  1.00  0.00     0.149 A 
ENDROOT
BRANCH   5   8
HETATM    8  N   LIG     1     -42.517  21.898   8.533  1.00  0.00    -0.170 N 
HETATM    9  H   LIG     1     -42.104  20.984   8.415  1.00  0.00     0.186 HD
BRANCH   8  10
HETATM   10  C   LIG     1     -43.779  22.026   7.962  1.00  0.00     0.156 A 
HETATM   11  C   LIG     1     -43.947  22.406   6.633  1.00  0.00     0.037 A 
HETATM   12  C   LIG     1     -45.213  22.438   6.065  1.00  0.00     0.002 A 
HETATM   13  C   LIG     1     -46.318  22.139   6.850  1.00  0.00     0.030 A 
HETATM   14  C   LIG     1     -46.080  21.832   8.184  1.00  0.00     0.098 A 
HETATM   15  N   LIG     1     -44.846  21.771   8.749  1.00  0.00    -0.227 NA
BRANCH  13  16
HETATM   16  C   LIG     1     -47.700  22.169   6.254  1.00  0.00     0.278 C 
BRANCH  16  17
HETATM   17  N   LIG     1     -47.876  21.296   5.081  1.00  0.00     0.146 N 
HETATM   18  C   LIG     1     -48.540  22.043   3.987  1.00  0.00     0.286 C 
HETATM   19  C   LIG     1     -50.048  22.323   4.219  1.00  0.00     0.285 C 
HETATM   20  N   LIG     1     -50.866  21.137   4.548  1.00  0.00     0.141 N 
HETATM   21  C   LIG     1     -50.190  20.369   5.622  1.00  0.00     0.285 C 
HETATM   22  C   LIG     1     -48.686  20.091   5.368  1.00  0.00     0.286 C 
BRANCH  20  23
HETATM   23  C   LIG     1     -51.134  20.269   3.388  1.00  0.00     0.251 C 
HETATM   24  C   LIG     1     -51.615  21.014   2.146  1.00  0.00     0.037 C 
ENDBRANCH  20  23
ENDBRANCH  16  17
ENDBRANCH  13  16
ENDBRANCH   8  10
ENDBRANCH   5   8
BRANCH   4  25
HETATM   25  C   LIG     1     -37.996  22.974   9.603  1.00  0.00     0.024 A 
HETATM   26  C   LIG     1     -36.927  23.849   9.849  1.00  0.00     0.033 A 
HETATM   27  C   LIG     1     -35.624  23.390  10.051  1.00  0.00     0.159 A 
HETATM   28  C   LIG     1     -35.350  22.018  10.013  1.00  0.00     0.126 A 
HETATM   29  F   LIG     1     -34.651  24.284  10.276  1.00  0.00    -0.203 F 
HETATM   30  C   LIG     1     -36.388  21.123   9.780  1.00  0.00     0.081 A 
HETATM   31  N   LIG     1     -34.164  21.364  10.171  1.00  0.00    -0.229 NA
HETATM   32  N   LIG     1     -35.781  19.871   9.822  1.00  0.00    -0.317 N 
HETATM   33  C   LIG     1     -37.712  21.580   9.570  1.00  0.00     0.021 A 
HETATM   34  C   LIG     1     -34.428  20.083  10.037  1.00  0.00     0.121 A 
HETATM   35  C   LIG     1     -33.372  19.043  10.119  1.00  0.00     0.072 C 
BRANCH  32  36
HETATM   36  C   LIG     1     -36.486  18.593   9.685  1.00  0.00     0.087 C 
HETATM   37  C   LIG     1     -36.766  17.860  11.004  1.00  0.00     0.025 C 
HETATM   38  C   LIG     1     -35.791  17.641   8.708  1.00  0.00     0.025 C 
ENDBRANCH  32  36
ENDBRANCH   4  25
TORSDOF 7
ENDMDL
MODEL 4
REMARK VINA RESULT:     -10.3      7.074     12.570
REMARK  7 active torsions:
REMARK  status: ('A' for Active; 'I' for Inactive)
REMARK    1  A    between atoms: C_4  and  C_25 
REMARK    2  A    between atoms: C_5  and  N_8 
REMARK    3  A    between atoms: N_8  and  C_10 
REMARK    4  A    between atoms: C_13  and  C_16 
REMARK    5  A    between atoms: C_16  and  N_17 
REMARK    6  A    between atoms: N_20  and  C_23 
REMARK    7  A    between atoms: N_28  and  C_36 
ROOT
HETATM    1  F   LIG     1     -41.317  22.246   8.909  1.00  0.00    -0.201 F 
HETATM    2  N   LIG     1     -40.438  25.676   9.621  1.00  0.00    -0.059 NA
HETATM    3  N   LIG     1     -42.771  25.510   9.295  1.00  0.00    -0.057 NA
HETATM    4  C   LIG     1     -40.270  24.354   9.401  1.00  0.00     0.129 A 
HETATM    5  C   LIG     1     -41.670  26.228   9.575  1.00  0.00     0.729 A 
HETATM    6  C   LIG     1     -41.373  23.560   9.129  1.00  0.00     0.178 A 
HETATM    7  C   LIG     1     -42.595  24.191   9.091  1.00  0.00     0.149 A 
ENDROOT
BRANCH   5   8
HETATM    8  N   LIG     1     -41.831  27.582   9.816  1.00  0.00    -0.170 N 
HETATM    9  H   LIG     1     -41.459  28.163   9.078  1.00  0.00     0.186 HD
BRANCH   8  10
HETATM   10  C   LIG     1     -42.016  28.249  11.023  1.00  0.00     0.156 A 
HETATM   11  C   LIG     1     -40.988  28.965  11.629  1.00  0.00     0.037 A 
HETATM   12  C   LIG     1     -41.225  29.695  12.785  1.00  0.00     0.002 A 
HETATM   13  C   LIG     1     -42.487  29.661  13.363  1.00  0.00     0.030 A 
HETATM   14  C   LIG     1     -43.446  28.874  12.739  1.00  0.00     0.098 A 
HETATM   15  N   LIG     1     -43.238  28.174  11.593  1.00  0.00    -0.227 NA
BRANCH  13  16
HETATM   16  C   LIG     1     -42.765  30.445  14.617  1.00  0.00     0.278 C 
BRANCH  16  17
HETATM   17  N   LIG     1     -42.980  31.886  14.400  1.00  0.00     0.146 N 
HETATM   18  C   LIG     1     -41.728  32.632  14.668  1.00  0.00     0.286 C 
HETATM   19  C   LIG     1     -41.349  32.741  16.168  1.00  0.00     0.285 C 
HETATM   20  N   LIG     1     -42.411  33.265  17.051  1.00  0.00     0.141 N 
HETATM   21  C   LIG     1     -43.675  32.542  16.765  1.00  0.00     0.285 C 
HETATM   22  C   LIG     1     -44.041  32.453  15.262  1.00  0.00     0.286 C 
BRANCH  20  23
HETATM   23  C   LIG     1     -42.613  34.720  16.925  1.00  0.00     0.251 C 
HETATM   24  C   LIG     1     -42.439  35.491  18.230  1.00  0.00     0.037 C 
ENDBRANCH  20  23
ENDBRANCH  16  17
ENDBRANCH  13  16
ENDBRANCH   8  10
ENDBRANCH   5   8
BRANCH   4  25
HETATM   25  C   LIG     1     -38.853  23.871   9.505  1.00  0.00     0.024 A 
HETATM   26  C   LIG     1     -37.778  24.672   9.087  1.00  0.00     0.033 A 
HETATM   27  C   LIG     1     -36.453  24.237   9.168  1.00  0.00     0.159 A 
HETATM   28  C   LIG     1     -36.163  22.968   9.681  1.00  0.00     0.126 A 
HETATM   29  F   LIG     1     -35.478  25.053   8.745  1.00  0.00    -0.203 F 
HETATM   30  C   LIG     1     -37.203  22.153  10.112  1.00  0.00     0.081 A 
HETATM   31  N   LIG     1     -34.958  22.349   9.837  1.00  0.00    -0.229 NA
HETATM   32  N   LIG     1     -36.572  20.997  10.565  1.00  0.00    -0.317 N 
HETATM   33  C   LIG     1     -38.550  22.583  10.030  1.00  0.00     0.021 A 
HETATM   34  C   LIG     1     -35.214  21.165  10.348  1.00  0.00     0.121 A 
HETATM   35  C   LIG     1     -34.143  20.179  10.639  1.00  0.00     0.072 C 
BRANCH  32  36
HETATM   36  C   LIG     1     -37.256  19.853  11.173  1.00  0.00     0.087 C 
HETATM   37  C   LIG     1     -36.831  19.530  12.611  1.00  0.00     0.025 C 
HETATM   38  C   LIG     1     -37.162  18.589  10.315  1.00  0.00     0.025 C 
ENDBRANCH  32  36
ENDBRANCH   4  25
TORSDOF 7
ENDMDL
MODEL 5
REMARK VINA RESULT:     -10.1      6.544     11.827
REMARK  7 active torsions:
REMARK  status: ('A' for Active; 'I' for Inactive)
REMARK    1  A    between atoms: C_4  and  C_25 
REMARK    2  A    between atoms: C_5  and  N_8 
REMARK    3  A    between atoms: N_8  and  C_10 
REMARK    4  A    between atoms: C_13  and  C_16 
REMARK    5  A    between atoms: C_16  and  N_17 
REMARK    6  A    between atoms: N_20  and  C_23 
REMARK    7  A    between atoms: N_28  and  C_36 
ROOT
HETATM    1  F   LIG     1     -38.784  25.829  10.468  1.00  0.00    -0.201 F 
HETATM    2  N   LIG     1     -40.076  22.639   9.370  1.00  0.00    -0.059 NA
HETATM    3  N   LIG     1     -41.429  24.375   8.516  1.00  0.00    -0.057 NA
HETATM    4  C   LIG     1     -39.269  23.521  10.002  1.00  0.00     0.129 A 
HETATM    5  C   LIG     1     -41.124  23.072   8.638  1.00  0.00     0.729 A 
HETATM    6  C   LIG     1     -39.523  24.879   9.894  1.00  0.00     0.178 A 
HETATM    7  C   LIG     1     -40.612  25.246   9.137  1.00  0.00     0.149 A 
ENDROOT
BRANCH   5   8
HETATM    8  N   LIG     1     -41.934  22.160   7.983  1.00  0.00    -0.170 N 
HETATM    9  H   LIG     1     -41.431  21.585   7.322  1.00  0.00     0.186 HD
BRANCH   8  10
HETATM   10  C   LIG     1     -43.310  22.190   7.775  1.00  0.00     0.156 A 
HETATM   11  C   LIG     1     -44.212  21.917   8.799  1.00  0.00     0.037 A 
HETATM   12  C   LIG     1     -45.577  22.043   8.587  1.00  0.00     0.002 A 
HETATM   13  C   LIG     1     -46.039  22.392   7.325  1.00  0.00     0.030 A 
HETATM   14  C   LIG     1     -45.085  22.586   6.334  1.00  0.00     0.098 A 
HETATM   15  N   LIG     1     -43.744  22.491   6.532  1.00  0.00    -0.227 NA
BRANCH  13  16
HETATM   16  C   LIG     1     -47.516  22.533   7.072  1.00  0.00     0.278 C 
BRANCH  16  17
HETATM   17  N   LIG     1     -48.125  23.733   7.670  1.00  0.00     0.146 N 
HETATM   18  C   LIG     1     -49.566  23.795   7.331  1.00  0.00     0.286 C 
HETATM   19  C   LIG     1     -49.867  24.168   5.856  1.00  0.00     0.285 C 
HETATM   20  N   LIG     1     -49.213  25.402   5.371  1.00  0.00     0.141 N 
HETATM   21  C   LIG     1     -47.775  25.359   5.736  1.00  0.00     0.285 C 
HETATM   22  C   LIG     1     -47.495  24.993   7.216  1.00  0.00     0.286 C 
BRANCH  20  23
HETATM   23  C   LIG     1     -49.834  26.636   5.884  1.00  0.00     0.251 C 
HETATM   24  C   LIG     1     -51.283  26.834   5.446  1.00  0.00     0.037 C 
ENDBRANCH  20  23
ENDBRANCH  16  17
ENDBRANCH  13  16
ENDBRANCH   8  10
ENDBRANCH   5   8
BRANCH   4  25
HETATM   25  C   LIG     1     -38.131  22.904  10.760  1.00  0.00     0.024 A 
HETATM   26  C   LIG     1     -37.503  23.586  11.815  1.00  0.00     0.033 A 
HETATM   27  C   LIG     1     -36.437  23.032  12.526  1.00  0.00     0.159 A 
HETATM   28  C   LIG     1     -35.962  21.758  12.198  1.00  0.00     0.126 A 
HETATM   29  F   LIG     1     -35.883  23.743  13.517  1.00  0.00    -0.203 F 
HETATM   30  C   LIG     1     -36.567  21.051  11.165  1.00  0.00     0.081 A 
HETATM   31  N   LIG     1     -34.940  21.042  12.748  1.00  0.00    -0.229 NA
HETATM   32  N   LIG     1     -35.873  19.845  11.118  1.00  0.00    -0.317 N 
HETATM   33  C   LIG     1     -37.646  21.606  10.435  1.00  0.00     0.021 A 
HETATM   34  C   LIG     1     -34.882  19.909  12.085  1.00  0.00     0.121 A 
HETATM   35  C   LIG     1     -33.866  18.868  12.381  1.00  0.00     0.072 C 
BRANCH  32  36
HETATM   36  C   LIG     1     -36.184  18.733  10.215  1.00  0.00     0.087 C 
HETATM   37  C   LIG     1     -35.989  19.032   8.723  1.00  0.00     0.025 C 
HETATM   38  C   LIG     1     -37.587  18.166  10.445  1.00  0.00     0.025 C 
ENDBRANCH  32  36
ENDBRANCH   4  25
TORSDOF 7
ENDMDL
MODEL 6
REMARK VINA RESULT:      -9.9      6.370     11.463
REMARK  7 active torsions:
REMARK  status: ('A' for Active; 'I' for Inactive)
REMARK    1  A    between atoms: C_4  and  C_25 
REMARK    2  A    between atoms: C_5  and  N_8 
REMARK    3  A    between atoms: N_8  and  C_10 
REMARK    4  A    between atoms: C_13  and  C_16 
REMARK    5  A    between atoms: C_16  and  N_17 
REMARK    6  A    between atoms: N_20  and  C_23 
REMARK    7  A    between atoms: N_28  and  C_36 
ROOT
HETATM    1  F   LIG     1     -36.795  24.839   8.719  1.00  0.00    -0.201 F 
HETATM    2  N   LIG     1     -39.650  22.985   9.928  1.00  0.00    -0.059 NA
HETATM    3  N   LIG     1     -40.382  24.729   8.515  1.00  0.00    -0.057 NA
HETATM    4  C   LIG     1     -38.356  23.340   9.767  1.00  0.00     0.129 A 
HETATM    5  C   LIG     1     -40.631  23.667   9.301  1.00  0.00     0.729 A 
HETATM    6  C   LIG     1     -38.038  24.414   8.951  1.00  0.00     0.178 A 
HETATM    7  C   LIG     1     -39.089  25.067   8.351  1.00  0.00     0.149 A 
ENDROOT
BRANCH   5   8
HETATM    8  N   LIG     1     -41.952  23.285   9.462  1.00  0.00    -0.170 N 
HETATM    9  H   LIG     1     -42.136  22.860  10.360  1.00  0.00     0.186 HD
BRANCH   8  10
HETATM   10  C   LIG     1     -42.915  23.007   8.497  1.00  0.00     0.156 A 
HETATM   11  C   LIG     1     -44.000  22.176   8.763  1.00  0.00     0.037 A 
HETATM   12  C   LIG     1     -44.992  21.988   7.812  1.00  0.00     0.002 A 
HETATM   13  C   LIG     1     -44.867  22.596   6.569  1.00  0.00     0.030 A 
HETATM   14  C   LIG     1     -43.726  23.358   6.352  1.00  0.00     0.098 A 
HETATM   15  N   LIG     1     -42.758  23.572   7.281  1.00  0.00    -0.227 NA
BRANCH  13  16
HETATM   16  C   LIG     1     -45.932  22.405   5.523  1.00  0.00     0.278 C 
BRANCH  16  17
HETATM   17  N   LIG     1     -47.232  21.959   6.051  1.00  0.00     0.146 N 
HETATM   18  C   LIG     1     -47.873  21.021   5.099  1.00  0.00     0.286 C 
HETATM   19  C   LIG     1     -48.430  21.687   3.814  1.00  0.00     0.285 C 
HETATM   20  N   LIG     1     -49.341  22.829   4.039  1.00  0.00     0.141 N 
HETATM   21  C   LIG     1     -48.717  23.755   5.015  1.00  0.00     0.285 C 
HETATM   22  C   LIG     1     -48.174  23.073   6.297  1.00  0.00     0.286 C 
BRANCH  20  23
HETATM   23  C   LIG     1     -50.682  22.428   4.498  1.00  0.00     0.251 C 
HETATM   24  C   LIG     1     -51.602  23.597   4.839  1.00  0.00     0.037 C 
ENDBRANCH  20  23
ENDBRANCH  16  17
ENDBRANCH  13  16
ENDBRANCH   8  10
ENDBRANCH   5   8
BRANCH   4  25
HETATM   25  C   LIG     1     -37.369  22.481  10.503  1.00  0.00     0.024 A 
HETATM   26  C   LIG     1     -37.007  22.761  11.830  1.00  0.00     0.033 A 
HETATM   27  C   LIG     1     -36.083  21.979  12.527  1.00  0.00     0.159 A 
HETATM   28  C   LIG     1     -35.490  20.875  11.907  1.00  0.00     0.126 A 
HETATM   29  F   LIG     1     -35.781  22.308  13.791  1.00  0.00    -0.203 F 
HETATM   30  C   LIG     1     -35.833  20.565  10.596  1.00  0.00     0.081 A 
HETATM   31  N   LIG     1     -34.568  19.995  12.394  1.00  0.00    -0.229 NA
HETATM   32  N   LIG     1     -35.085  19.427  10.302  1.00  0.00    -0.317 N 
HETATM   33  C   LIG     1     -36.764  21.355   9.879  1.00  0.00     0.021 A 
HETATM   34  C   LIG     1     -34.319  19.145  11.422  1.00  0.00     0.121 A 
HETATM   35  C   LIG     1     -33.336  18.043  11.567  1.00  0.00     0.072 C 
BRANCH  32  36
HETATM   36  C   LIG     1     -35.148  18.685   9.040  1.00  0.00     0.087 C 
HETATM   37  C   LIG     1     -36.012  17.418   9.073  1.00  0.00     0.025 C 
HETATM   38  C   LIG     1     -33.762  18.347   8.488  1.00  0.00     0.025 C 
ENDBRANCH  32  36
ENDBRANCH   4  25
TORSDOF 7
ENDMDL
MODEL 7
REMARK VINA RESULT:      -9.9     10.569     15.158
REMARK  7 active torsions:
REMARK  status: ('A' for Active; 'I' for Inactive)
REMARK    1  A    between atoms: C_4  and  C_25 
REMARK    2  A    between atoms: C_5  and  N_8 
REMARK    3  A    between atoms: N_8  and  C_10 
REMARK    4  A    between atoms: C_13  and  C_16 
REMARK    5  A    between atoms: C_16  and  N_17 
REMARK    6  A    between atoms: N_20  and  C_23 
REMARK    7  A    between atoms: N_28  and  C_36 
ROOT
HETATM    1  F   LIG     1     -38.286  24.894   8.771  1.00  0.00    -0.201 F 
HETATM    2  N   LIG     1     -40.986  26.969   9.975  1.00  0.00    -0.059 NA
HETATM    3  N   LIG     1     -38.945  28.141  10.164  1.00  0.00    -0.057 NA
HETATM    4  C   LIG     1     -40.365  25.883   9.464  1.00  0.00     0.129 A 
HETATM    5  C   LIG     1     -40.280  28.071  10.305  1.00  0.00     0.729 A 
HETATM    6  C   LIG     1     -38.992  25.906   9.277  1.00  0.00     0.178 A 
HETATM    7  C   LIG     1     -38.337  27.059   9.642  1.00  0.00     0.149 A 
ENDROOT
BRANCH   5   8
HETATM    8  N   LIG     1     -40.930  29.183  10.814  1.00  0.00    -0.170 N 
HETATM    9  H   LIG     1     -40.438  30.047  10.635  1.00  0.00     0.186 HD
BRANCH   8  10
HETATM   10  C   LIG     1     -41.864  29.267  11.842  1.00  0.00     0.156 A 
HETATM   11  C   LIG     1     -41.585  29.932  13.032  1.00  0.00     0.037 A 
HETATM   12  C   LIG     1     -42.565  30.078  14.004  1.00  0.00     0.002 A 
HETATM   13  C   LIG     1     -43.814  29.507  13.800  1.00  0.00     0.030 A 
HETATM   14  C   LIG     1     -44.001  28.803  12.617  1.00  0.00     0.098 A 
HETATM   15  N   LIG     1     -43.060  28.672  11.645  1.00  0.00    -0.227 NA
BRANCH  13  16
HETATM   16  C   LIG     1     -44.892  29.653  14.840  1.00  0.00     0.278 C 
BRANCH  16  17
HETATM   17  N   LIG     1     -44.441  30.263  16.102  1.00  0.00     0.146 N 
HETATM   18  C   LIG     1     -44.482  29.261  17.194  1.00  0.00     0.286 C 
HETATM   19  C   LIG     1     -45.908  28.895  17.681  1.00  0.00     0.285 C 
HETATM   20  N   LIG     1     -46.759  30.042  18.059  1.00  0.00     0.141 N 
HETATM   21  C   LIG     1     -46.697  31.062  16.983  1.00  0.00     0.285 C 
HETATM   22  C   LIG     1     -45.264  31.421  16.516  1.00  0.00     0.286 C 
BRANCH  20  23
HETATM   23  C   LIG     1     -46.395  30.642  19.355  1.00  0.00     0.251 C 
HETATM   24  C   LIG     1     -46.787  29.801  20.566  1.00  0.00     0.037 C 
ENDBRANCH  20  23
ENDBRANCH  16  17
ENDBRANCH  13  16
ENDBRANCH   8  10
ENDBRANCH   5   8
BRANCH   4  25
HETATM   25  C   LIG     1     -41.273  24.739   9.121  1.00  0.00     0.024 A 
HETATM   26  C   LIG     1     -40.769  23.446   8.912  1.00  0.00     0.033 A 
HETATM   27  C   LIG     1     -41.597  22.370   8.583  1.00  0.00     0.159 A 
HETATM   28  C   LIG     1     -42.977  22.562   8.455  1.00  0.00     0.126 A 
HETATM   29  F   LIG     1     -41.045  21.164   8.393  1.00  0.00    -0.203 F 
HETATM   30  C   LIG     1     -43.510  23.829   8.664  1.00  0.00     0.081 A 
HETATM   31  N   LIG     1     -43.953  21.665   8.135  1.00  0.00    -0.229 NA
HETATM   32  N   LIG     1     -44.880  23.663   8.475  1.00  0.00    -0.317 N 
HETATM   33  C   LIG     1     -42.678  24.926   8.993  1.00  0.00     0.021 A 
HETATM   34  C   LIG     1     -45.085  22.336   8.131  1.00  0.00     0.121 A 
HETATM   35  C   LIG     1     -46.382  21.698   7.798  1.00  0.00     0.072 C 
BRANCH  32  36
HETATM   36  C   LIG     1     -45.884  24.718   8.644  1.00  0.00     0.087 C 
HETATM   37  C   LIG     1     -45.839  25.834   7.592  1.00  0.00     0.025 C 
HETATM   38  C   LIG     1     -45.858  25.333  10.045  1.00  0.00     0.025 C 
ENDBRANCH  32  36
ENDBRANCH   4  25
TORSDOF 7
ENDMDL
MODEL 8
REMARK VINA RESULT:      -9.8      7.312     13.340
REMARK  7 active torsions:
REMARK  status: ('A' for Active; 'I' for Inactive)
REMARK    1  A    between atoms: C_4  and  C_25 
REMARK    2  A    between atoms: C_5  and  N_8 
REMARK    3  A    between atoms: N_8  and  C_10 
REMARK    4  A    between atoms: C_13  and  C_16 
REMARK    5  A    between atoms: C_16  and  N_17 
REMARK    6  A    between atoms: N_20  and  C_23 
REMARK    7  A    between atoms: N_28  and  C_36 
ROOT
HETATM    1  F   LIG     1     -42.249  21.778   8.555  1.00  0.00    -0.201 F 
HETATM    2  N   LIG     1     -42.995  25.223   9.347  1.00  0.00    -0.059 NA
HETATM    3  N   LIG     1     -45.008  24.038   9.003  1.00  0.00    -0.057 NA
HETATM    4  C   LIG     1     -42.254  24.120   9.100  1.00  0.00     0.129 A 
HETATM    5  C   LIG     1     -44.343  25.166   9.305  1.00  0.00     0.729 A 
HETATM    6  C   LIG     1     -42.886  22.923   8.803  1.00  0.00     0.178 A 
HETATM    7  C   LIG     1     -44.262  22.942   8.772  1.00  0.00     0.149 A 
ENDROOT
BRANCH   5   8
HETATM    8  N   LIG     1     -45.093  26.299   9.574  1.00  0.00    -0.170 N 
HETATM    9  H   LIG     1     -45.563  26.666   8.759  1.00  0.00     0.186 HD
BRANCH   8  10
HETATM   10  C   LIG     1     -44.969  27.213  10.616  1.00  0.00     0.156 A 
HETATM   11  C   LIG     1     -43.875  27.200  11.476  1.00  0.00     0.037 A 
HETATM   12  C   LIG     1     -43.733  28.179  12.450  1.00  0.00     0.002 A 
HETATM   13  C   LIG     1     -44.722  29.143  12.594  1.00  0.00     0.030 A 
HETATM   14  C   LIG     1     -45.817  29.056  11.743  1.00  0.00     0.098 A 
HETATM   15  N   LIG     1     -45.959  28.119  10.768  1.00  0.00    -0.227 NA
BRANCH  13  16
HETATM   16  C   LIG     1     -44.588  30.213  13.643  1.00  0.00     0.278 C 
BRANCH  16  17
HETATM   17  N   LIG     1     -43.424  30.053  14.531  1.00  0.00     0.146 N 
HETATM   18  C   LIG     1     -43.866  30.005  15.945  1.00  0.00     0.286 C 
HETATM   19  C   LIG     1     -44.335  31.366  16.522  1.00  0.00     0.285 C 
HETATM   20  N   LIG     1     -43.379  32.482  16.362  1.00  0.00     0.141 N 
HETATM   21  C   LIG     1     -42.910  32.515  14.955  1.00  0.00     0.285 C 
HETATM   22  C   LIG     1     -42.437  31.148  14.400  1.00  0.00     0.286 C 
BRANCH  20  23
HETATM   23  C   LIG     1     -42.231  32.407  17.283  1.00  0.00     0.251 C 
HETATM   24  C   LIG     1     -42.010  33.670  18.110  1.00  0.00     0.037 C 
ENDBRANCH  20  23
ENDBRANCH  16  17
ENDBRANCH  13  16
ENDBRANCH   8  10
ENDBRANCH   5   8
BRANCH   4  25
HETATM   25  C   LIG     1     -40.770  24.321   9.203  1.00  0.00     0.024 A 
HETATM   26  C   LIG     1     -40.191  25.585   9.014  1.00  0.00     0.033 A 
HETATM   27  C   LIG     1     -38.812  25.789   9.097  1.00  0.00     0.159 A 
HETATM   28  C   LIG     1     -37.960  24.716   9.378  1.00  0.00     0.126 A 
HETATM   29  F   LIG     1     -38.328  27.024   8.900  1.00  0.00    -0.203 F 
HETATM   30  C   LIG     1     -38.502  23.451   9.579  1.00  0.00     0.081 A 
HETATM   31  N   LIG     1     -36.601  24.691   9.492  1.00  0.00    -0.229 NA
HETATM   32  N   LIG     1     -37.401  22.641   9.844  1.00  0.00    -0.317 N 
HETATM   33  C   LIG     1     -39.898  23.234   9.492  1.00  0.00     0.021 A 
HETATM   34  C   LIG     1     -36.275  23.444   9.752  1.00  0.00     0.121 A 
HETATM   35  C   LIG     1     -34.865  23.013   9.920  1.00  0.00     0.072 C 
BRANCH  32  36
HETATM   36  C   LIG     1     -37.470  21.216  10.179  1.00  0.00     0.087 C 
HETATM   37  C   LIG     1     -37.080  20.867  11.621  1.00  0.00     0.025 C 
HETATM   38  C   LIG     1     -36.671  20.345   9.207  1.00  0.00     0.025 C 
ENDBRANCH  32  36
ENDBRANCH   4  25
TORSDOF 7
ENDMDL
MODEL 9
REMARK VINA RESULT:      -9.5      8.377     16.322
REMARK  7 active torsions:
REMARK  status: ('A' for Active; 'I' for Inactive)
REMARK    1  A    between atoms: C_4  and  C_25 
REMARK    2  A    between atoms: C_5  and  N_8 
REMARK    3  A    between atoms: N_8  and  C_10 
REMARK    4  A    between atoms: C_13  and  C_16 
REMARK    5  A    between atoms: C_16  and  N_17 
REMARK    6  A    between atoms: N_20  and  C_23 
REMARK    7  A    between atoms: N_28  and  C_36 
ROOT
HETATM    1  F   LIG     1     -47.254  22.546  10.888  1.00  0.00    -0.201 F 
HETATM    2  N   LIG     1     -44.739  23.924   8.692  1.00  0.00    -0.059 NA
HETATM    3  N   LIG     1     -44.423  24.761  10.877  1.00  0.00    -0.057 NA
HETATM    4  C   LIG     1     -45.812  23.199   9.078  1.00  0.00     0.129 A 
HETATM    5  C   LIG     1     -44.062  24.677   9.585  1.00  0.00     0.729 A 
HETATM    6  C   LIG     1     -46.217  23.230  10.403  1.00  0.00     0.178 A 
HETATM    7  C   LIG     1     -45.485  24.025  11.255  1.00  0.00     0.149 A 
ENDROOT
BRANCH   5   8
HETATM    8  N   LIG     1     -42.955  25.404   9.180  1.00  0.00    -0.170 N 
HETATM    9  H   LIG     1     -43.186  26.161   8.553  1.00  0.00     0.186 HD
BRANCH   8  10
HETATM   10  C   LIG     1     -41.616  25.028   9.146  1.00  0.00     0.156 A 
HETATM   11  C   LIG     1     -40.592  25.947   9.358  1.00  0.00     0.037 A 
HETATM   12  C   LIG     1     -39.270  25.529   9.407  1.00  0.00     0.002 A 
HETATM   13  C   LIG     1     -38.972  24.191   9.189  1.00  0.00     0.030 A 
HETATM   14  C   LIG     1     -40.039  23.342   8.919  1.00  0.00     0.098 A 
HETATM   15  N   LIG     1     -41.340  23.731   8.893  1.00  0.00    -0.227 NA
BRANCH  13  16
HETATM   16  C   LIG     1     -37.545  23.716   9.237  1.00  0.00     0.278 C 
BRANCH  16  17
HETATM   17  N   LIG     1     -36.922  23.794  10.569  1.00  0.00     0.146 N 
HETATM   18  C   LIG     1     -35.508  23.353  10.495  1.00  0.00     0.286 C 
HETATM   19  C   LIG     1     -35.317  21.826  10.307  1.00  0.00     0.285 C 
HETATM   20  N   LIG     1     -36.028  20.976  11.285  1.00  0.00     0.141 N 
HETATM   21  C   LIG     1     -37.436  21.433  11.385  1.00  0.00     0.285 C 
HETATM   22  C   LIG     1     -37.606  22.961  11.583  1.00  0.00     0.286 C 
BRANCH  20  23
HETATM   23  C   LIG     1     -35.398  20.961  12.617  1.00  0.00     0.251 C 
HETATM   24  C   LIG     1     -34.617  19.687  12.926  1.00  0.00     0.037 C 
ENDBRANCH  20  23
ENDBRANCH  16  17
ENDBRANCH  13  16
ENDBRANCH   8  10
ENDBRANCH   5   8
BRANCH   4  25
HETATM   25  C   LIG     1     -46.454  22.391   7.989  1.00  0.00     0.024 A 
HETATM   26  C   LIG     1     -46.085  22.557   6.645  1.00  0.00     0.033 A 
HETATM   27  C   LIG     1     -46.678  21.821   5.616  1.00  0.00     0.159 A 
HETATM   28  C   LIG     1     -47.671  20.881   5.910  1.00  0.00     0.126 A 
HETATM   29  F   LIG     1     -46.279  22.036   4.355  1.00  0.00    -0.203 F 
HETATM   30  C   LIG     1     -48.054  20.685   7.232  1.00  0.00     0.081 A 
HETATM   31  N   LIG     1     -48.379  20.073   5.070  1.00  0.00    -0.229 NA
HETATM   32  N   LIG     1     -49.029  19.693   7.167  1.00  0.00    -0.317 N 
HETATM   33  C   LIG     1     -47.462  21.430   8.281  1.00  0.00     0.021 A 
HETATM   34  C   LIG     1     -49.200  19.380   5.828  1.00  0.00     0.121 A 
HETATM   35  C   LIG     1     -50.163  18.401   5.264  1.00  0.00     0.072 C 
BRANCH  32  36
HETATM   36  C   LIG     1     -49.702  19.102   8.327  1.00  0.00     0.087 C 
HETATM   37  C   LIG     1     -50.772  19.986   8.980  1.00  0.00     0.025 C 
HETATM   38  C   LIG     1     -48.716  18.618   9.394  1.00  0.00     0.025 C 
ENDBRANCH  32  36
ENDBRANCH   4  25
TORSDOF 7
ENDMDL
