REMARK  7 active torsions:
REMARK  status: ('A' for Active; 'I' for Inactive)
REMARK    1  A    between atoms: N_5  and  C_12 
REMARK    2  A    between atoms: N_6  and  C_13 
REMARK       I    between atoms: N_6  and  C_22 
REMARK    3  A    between atoms: N_7  and  C_19 
REMARK    4  A    between atoms: N_7  and  C_30 
REMARK    5  A    between atoms: C_14  and  C_26 
REMARK    6  A    between atoms: C_18  and  C_22 
REMARK    7  A    between atoms: C_32  and  C_33 
ROOT
HETATM    1  C   LIG     1       0.769   2.561  -0.926  1.00  0.00     0.034 A 
HETATM    2  C   LIG     1       0.177   2.489  -3.304  1.00  0.00     0.056 A 
HETATM    3  C   LIG     1       0.215   3.897  -3.337  1.00  0.00    -0.035 A 
HETATM    4  C   LIG     1       0.469   1.843  -2.094  1.00  0.00     0.047 A 
HETATM    5  C   LIG     1       0.793   3.954  -0.967  1.00  0.00     0.018 A 
HETATM    6  C   LIG     1       0.514   4.617  -2.164  1.00  0.00     0.010 A 
HETATM    7  C   LIG     1      -0.125   4.661  -4.587  1.00  0.00     0.050 C 
ENDROOT
BRANCH   1   8
HETATM    8  C   LIG     1       1.074   1.846   0.345  1.00  0.00     0.256 C 
HETATM    9  O   LIG     1       1.816   2.391   1.168  1.00  0.00    -0.267 OA
HETATM   10  N   LIG     1       0.431   0.630   0.501  1.00  0.00    -0.323 N 
HETATM   11  H   LIG     1      -0.286   0.398  -0.181  1.00  0.00     0.169 HD
BRANCH  10  12
HETATM   12  C   LIG     1       0.531  -0.251   1.594  1.00  0.00     0.037 A 
HETATM   13  C   LIG     1       1.573  -0.200   2.519  1.00  0.00     0.059 A 
HETATM   14  C   LIG     1       1.636  -1.124   3.572  1.00  0.00     0.042 A 
HETATM   15  C   LIG     1       0.640  -2.101   3.708  1.00  0.00     0.046 A 
HETATM   16  C   LIG     1      -0.427  -2.149   2.795  1.00  0.00     0.052 A 
HETATM   17  C   LIG     1      -0.458  -1.229   1.731  1.00  0.00     0.046 A 
BRANCH  14  18
HETATM   18  N   LIG     1       2.716  -1.052   4.490  1.00  0.00    -0.315 N 
HETATM   19  C   LIG     1       3.474   0.060   4.780  1.00  0.00     0.125 A 
HETATM   20  C   LIG     1       4.396  -0.336   5.723  1.00  0.00     0.048 A 
HETATM   21  N   LIG     1       4.240  -1.668   6.010  1.00  0.00    -0.247 NA
HETATM   22  C   LIG     1       5.428   0.486   6.392  1.00  0.00     0.072 C 
HETATM   23  C   LIG     1       3.229  -2.066   5.267  1.00  0.00     0.214 A 
ENDBRANCH  14  18
BRANCH  16  24
HETATM   24  C   LIG     1      -1.543  -3.155   2.937  1.00  0.00     0.417 C 
HETATM   25  F   LIG     1      -1.393  -3.988   4.005  1.00  0.00    -0.166 F 
HETATM   26  F   LIG     1      -1.650  -3.965   1.846  1.00  0.00    -0.166 F 
HETATM   27  F   LIG     1      -2.764  -2.572   3.088  1.00  0.00    -0.166 F 
ENDBRANCH  16  24
ENDBRANCH  10  12
ENDBRANCH   1   8
BRANCH   2  28
HETATM   28  N   LIG     1      -0.201   1.745  -4.434  1.00  0.00    -0.188 N 
HETATM   29  H   LIG     1       0.227   1.999  -5.312  1.00  0.00     0.184 HD
BRANCH  28  30
HETATM   30  C   LIG     1      -0.791   0.484  -4.511  1.00  0.00     0.727 A 
HETATM   31  N   LIG     1      -1.604   0.066  -3.525  1.00  0.00    -0.062 NA
HETATM   32  C   LIG     1      -2.224  -1.126  -3.661  1.00  0.00     0.089 A 
HETATM   33  C   LIG     1      -2.010  -1.926  -4.764  1.00  0.00     0.053 A 
HETATM   34  C   LIG     1      -1.148  -1.433  -5.711  1.00  0.00     0.139 A 
HETATM   35  N   LIG     1      -0.547  -0.233  -5.618  1.00  0.00    -0.075 NA
BRANCH  32  36
HETATM   36  C   LIG     1      -3.117  -1.510  -2.558  1.00  0.00     0.011 A 
HETATM   37  C   LIG     1      -3.314  -2.846  -2.178  1.00  0.00     0.017 A 
HETATM   38  C   LIG     1      -4.158  -3.169  -1.117  1.00  0.00     0.020 A 
HETATM   39  C   LIG     1      -4.794  -2.140  -0.448  1.00  0.00     0.116 A 
HETATM   40  N   LIG     1      -4.641  -0.840  -0.769  1.00  0.00    -0.272 NA
HETATM   41  C   LIG     1      -3.815  -0.558  -1.810  1.00  0.00     0.130 A 
ENDBRANCH  32  36
ENDBRANCH  28  30
ENDBRANCH   2  28
TORSDOF 7
