MODEL 1
REMARK VINA RESULT:     -12.2      0.000      0.000
REMARK  13 active torsions:
REMARK  status: ('A' for Active; 'I' for Inactive)
REMARK    1  A    between atoms: S_2  and  N_13 
REMARK    2  A    between atoms: S_2  and  C_52 
REMARK    3  A    between atoms: O_4  and  C_45 
REMARK    4  A    between atoms: O_4  and  C_55 
REMARK    5  A    between atoms: N_10  and  C_23 
REMARK    6  A    between atoms: N_11  and  C_33 
REMARK    7  A    between atoms: N_12  and  C_42 
REMARK    8  A    between atoms: N_12  and  C_48 
REMARK       I    between atoms: N_13  and  C_49 
REMARK    9  A    between atoms: N_14  and  C_50 
REMARK   10  A    between atoms: C_21  and  C_23 
REMARK   11  A    between atoms: C_22  and  C_28 
REMARK   12  A    between atoms: C_36  and  C_42 
REMARK   13  A    between atoms: C_47  and  C_49 
ROOT
HETATM    1  C   LIG     1      27.936   5.393  27.785  1.00  0.00     0.033 C 
HETATM    2  C   LIG     1      28.228   5.720  26.446  1.00  0.00     0.067 C 
HETATM    3  C   LIG     1      27.935   4.027  28.085  1.00  0.00     0.030 C 
HETATM    4  C   LIG     1      28.544   4.747  25.464  1.00  0.00     0.094 C 
HETATM    5  C   LIG     1      28.295   3.061  27.155  1.00  0.00     0.022 C 
HETATM    6  C   LIG     1      28.718   3.409  25.866  1.00  0.00     0.067 C 
ENDROOT
BRANCH   6   7
HETATM    7  C   LIG     1      29.412   2.255  25.188  1.00  0.00     0.268 C 
HETATM    8  O   LIG     1      29.802   1.313  25.842  1.00  0.00    -0.267 OA
HETATM    9  N   LIG     1      29.612   2.343  23.818  1.00  0.00    -0.246 N 
HETATM   10  H   LIG     1      29.374   3.162  23.261  1.00  0.00     0.182 HD
BRANCH   9  11
HETATM   11  S   LIG     1      30.507   1.228  22.978  1.00  0.00     0.265 S 
HETATM   12  O   LIG     1      31.856   1.309  23.522  1.00  0.00    -0.200 OA
HETATM   13  O   LIG     1      29.813  -0.028  22.960  1.00  0.00    -0.200 OA
BRANCH  11  14
HETATM   14  C   LIG     1      30.603   1.842  21.305  1.00  0.00     0.082 A 
HETATM   15  C   LIG     1      31.271   1.144  20.293  1.00  0.00     0.063 A 
HETATM   16  C   LIG     1      31.099   1.513  18.918  1.00  0.00     0.130 A 
HETATM   17  C   LIG     1      30.173   2.532  18.545  1.00  0.00     0.061 A 
HETATM   18  C   LIG     1      29.585   3.240  19.632  1.00  0.00     0.033 A 
HETATM   19  C   LIG     1      29.832   2.932  20.975  1.00  0.00     0.028 A 
BRANCH  16  20
HETATM   20  N   LIG     1      31.984   0.719  17.978  1.00  0.00    -0.113 N 
HETATM   21  O   LIG     1      31.514   0.255  16.951  1.00  0.00    -0.532 OA
HETATM   22  O   LIG     1      33.145   0.571  18.319  1.00  0.00    -0.532 OA
ENDBRANCH  16  20
BRANCH  17  23
HETATM   23  N   LIG     1      29.785   3.002  17.272  1.00  0.00    -0.388 N 
HETATM   24  H   LIG     1      29.904   4.006  17.156  1.00  0.00     0.159 HD
BRANCH  23  25
HETATM   25  C   LIG     1      28.651   2.454  16.518  1.00  0.00     0.124 C 
BRANCH  25  26
HETATM   26  C   LIG     1      28.028   1.152  17.041  1.00  0.00     0.007 C 
HETATM   27  C   LIG     1      27.926   0.111  15.894  1.00  0.00     0.032 C 
HETATM   28  C   LIG     1      26.665   0.259  15.042  1.00  0.00     0.168 C 
HETATM   29  O   LIG     1      25.510   0.208  15.873  1.00  0.00    -0.391 OA
HETATM   30  C   LIG     1      25.471   1.315  16.770  1.00  0.00     0.168 C 
HETATM   31  C   LIG     1      26.663   1.282  17.722  1.00  0.00     0.032 C 
ENDBRANCH  25  26
ENDBRANCH  23  25
ENDBRANCH  17  23
ENDBRANCH  11  14
ENDBRANCH   9  11
ENDBRANCH   6   7
BRANCH   4  32
HETATM   32  O   LIG     1      28.746   5.283  24.202  1.00  0.00    -0.308 OA
BRANCH  32  33
HETATM   33  C   LIG     1      27.675   5.409  23.328  1.00  0.00     0.094 C 
HETATM   34  C   LIG     1      27.796   6.359  22.310  1.00  0.00     0.054 C 
HETATM   35  C   LIG     1      27.188   6.037  21.086  1.00  0.00     0.014 C 
HETATM   36  C   LIG     1      26.306   4.964  21.072  1.00  0.00     0.137 C 
HETATM   37  C   LIG     1      27.306   6.499  19.749  1.00  0.00     0.032 C 
HETATM   38  N   LIG     1      25.870   4.274  22.146  1.00  0.00    -0.240 NA
HETATM   39  N   LIG     1      26.018   4.679  19.761  1.00  0.00    -0.350 N 
HETATM   40  C   LIG     1      26.592   4.543  23.263  1.00  0.00     0.156 C 
HETATM   41  C   LIG     1      26.663   5.580  18.946  1.00  0.00     0.090 C 
HETATM   42  H   LIG     1      25.507   3.861  19.455  1.00  0.00     0.166 HD
ENDBRANCH  32  33
ENDBRANCH   4  32
BRANCH   1  43
HETATM   43  N   LIG     1      27.677   6.362  28.787  1.00  0.00    -0.377 N 
HETATM   44  C   LIG     1      28.748   7.357  29.024  1.00  0.00     0.153 C 
HETATM   45  C   LIG     1      28.288   8.613  29.800  1.00  0.00     0.292 C 
HETATM   46  N   LIG     1      27.013   9.200  29.320  1.00  0.00     0.095 N 
HETATM   47  C   LIG     1      26.007   8.154  29.579  1.00  0.00     0.292 C 
HETATM   48  C   LIG     1      26.269   6.835  28.847  1.00  0.00     0.153 C 
BRANCH  46  49
HETATM   49  C   LIG     1      27.108   9.571  27.883  1.00  0.00     0.307 C 
BRANCH  49  50
HETATM   50  C   LIG     1      27.808  10.897  27.617  1.00  0.00    -0.045 C 
HETATM   51  C   LIG     1      28.486  11.483  28.839  1.00  0.00     0.037 C 
HETATM   52  C   LIG     1      29.656  12.410  28.504  1.00  0.00     0.013 C 
HETATM   53  C   LIG     1      29.260  13.513  27.511  1.00  0.00    -0.043 C 
HETATM   54  C   LIG     1      28.566  12.896  26.261  1.00  0.00     0.048 C 
HETATM   55  C   LIG     1      28.335  14.539  28.201  1.00  0.00     0.015 C 
HETATM   56  C   LIG     1      30.536  14.266  27.075  1.00  0.00     0.015 C 
HETATM   57  C   LIG     1      27.898  11.530  26.422  1.00  0.00    -0.043 C 
BRANCH  57  58
HETATM   58  C   LIG     1      27.412  10.987  25.123  1.00  0.00    -0.029 C 
HETATM   59  C   LIG     1      26.500  11.696  24.329  1.00  0.00     0.013 C 
HETATM   60  C   LIG     1      26.237  11.307  23.009  1.00  0.00     0.024 C 
HETATM   61  C   LIG     1      26.927  10.228  22.467  1.00  0.00     0.034 C 
HETATM   62 CL   LIG     1      26.975   9.989  20.762  1.00  0.00    -0.084 Cl
HETATM   63  C   LIG     1      27.724   9.429  23.277  1.00  0.00     0.024 C 
HETATM   64  C   LIG     1      27.986   9.821  24.594  1.00  0.00     0.013 C 
ENDBRANCH  57  58
ENDBRANCH  49  50
ENDBRANCH  46  49
ENDBRANCH   1  43
TORSDOF 13
ENDMDL
MODEL 2
REMARK VINA RESULT:     -11.6      4.494     13.012
REMARK  13 active torsions:
REMARK  status: ('A' for Active; 'I' for Inactive)
REMARK    1  A    between atoms: S_2  and  N_13 
REMARK    2  A    between atoms: S_2  and  C_52 
REMARK    3  A    between atoms: O_4  and  C_45 
REMARK    4  A    between atoms: O_4  and  C_55 
REMARK    5  A    between atoms: N_10  and  C_23 
REMARK    6  A    between atoms: N_11  and  C_33 
REMARK    7  A    between atoms: N_12  and  C_42 
REMARK    8  A    between atoms: N_12  and  C_48 
REMARK       I    between atoms: N_13  and  C_49 
REMARK    9  A    between atoms: N_14  and  C_50 
REMARK   10  A    between atoms: C_21  and  C_23 
REMARK   11  A    between atoms: C_22  and  C_28 
REMARK   12  A    between atoms: C_36  and  C_42 
REMARK   13  A    between atoms: C_47  and  C_49 
ROOT
HETATM    1  C   LIG     1      27.658   8.698  21.247  1.00  0.00     0.033 C 
HETATM    2  C   LIG     1      26.946   9.674  21.973  1.00  0.00     0.067 C 
HETATM    3  C   LIG     1      28.721   8.096  21.930  1.00  0.00     0.030 C 
HETATM    4  C   LIG     1      27.245  10.007  23.320  1.00  0.00     0.094 C 
HETATM    5  C   LIG     1      28.997   8.365  23.264  1.00  0.00     0.022 C 
HETATM    6  C   LIG     1      28.195   9.234  24.015  1.00  0.00     0.067 C 
ENDROOT
BRANCH   6   7
HETATM    7  C   LIG     1      28.444   9.069  25.493  1.00  0.00     0.268 C 
HETATM    8  O   LIG     1      29.561   8.829  25.895  1.00  0.00    -0.267 OA
HETATM    9  N   LIG     1      27.351   9.164  26.341  1.00  0.00    -0.246 N 
HETATM   10  H   LIG     1      26.391   9.276  26.020  1.00  0.00     0.182 HD
BRANCH   9  11
HETATM   11  S   LIG     1      27.456   8.837  27.964  1.00  0.00     0.265 S 
HETATM   12  O   LIG     1      26.092   8.579  28.406  1.00  0.00    -0.200 OA
HETATM   13  O   LIG     1      28.483   7.860  28.191  1.00  0.00    -0.200 OA
BRANCH  11  14
HETATM   14  C   LIG     1      27.953  10.367  28.737  1.00  0.00     0.082 A 
HETATM   15  C   LIG     1      28.307  11.496  27.993  1.00  0.00     0.063 A 
HETATM   16  C   LIG     1      28.431  12.776  28.627  1.00  0.00     0.130 A 
HETATM   17  C   LIG     1      28.102  12.945  30.005  1.00  0.00     0.061 A 
HETATM   18  C   LIG     1      27.816  11.741  30.708  1.00  0.00     0.033 A 
HETATM   19  C   LIG     1      27.790  10.480  30.099  1.00  0.00     0.028 A 
BRANCH  16  20
HETATM   20  N   LIG     1      28.929  13.856  27.687  1.00  0.00    -0.113 N 
HETATM   21  O   LIG     1      29.856  13.618  26.929  1.00  0.00    -0.532 OA
HETATM   22  O   LIG     1      28.370  14.938  27.755  1.00  0.00    -0.532 OA
ENDBRANCH  16  20
BRANCH  17  23
HETATM   23  N   LIG     1      28.072  14.105  30.809  1.00  0.00    -0.388 N 
HETATM   24  H   LIG     1      28.916  14.668  30.742  1.00  0.00     0.159 HD
BRANCH  23  25
HETATM   25  C   LIG     1      27.434  14.157  32.130  1.00  0.00     0.124 C 
BRANCH  25  26
HETATM   26  C   LIG     1      25.995  14.689  32.191  1.00  0.00     0.007 C 
HETATM   27  C   LIG     1      25.982  16.131  32.765  1.00  0.00     0.032 C 
HETATM   28  C   LIG     1      25.964  16.182  34.293  1.00  0.00     0.168 C 
HETATM   29  O   LIG     1      24.861  15.432  34.790  1.00  0.00    -0.391 OA
HETATM   30  C   LIG     1      24.995  14.048  34.477  1.00  0.00     0.168 C 
HETATM   31  C   LIG     1      24.991  13.832  32.967  1.00  0.00     0.032 C 
ENDBRANCH  25  26
ENDBRANCH  23  25
ENDBRANCH  17  23
ENDBRANCH  11  14
ENDBRANCH   9  11
ENDBRANCH   6   7
BRANCH   4  32
HETATM   32  O   LIG     1      26.455  11.029  23.822  1.00  0.00    -0.308 OA
BRANCH  32  33
HETATM   33  C   LIG     1      26.822  12.350  23.609  1.00  0.00     0.094 C 
HETATM   34  C   LIG     1      25.795  13.299  23.598  1.00  0.00     0.054 C 
HETATM   35  C   LIG     1      26.115  14.565  24.115  1.00  0.00     0.014 C 
HETATM   36  C   LIG     1      27.458  14.849  24.328  1.00  0.00     0.137 C 
HETATM   37  C   LIG     1      25.372  15.679  24.584  1.00  0.00     0.032 C 
HETATM   38  N   LIG     1      28.504  14.077  23.967  1.00  0.00    -0.240 NA
HETATM   39  N   LIG     1      27.527  16.017  25.043  1.00  0.00    -0.350 N 
HETATM   40  C   LIG     1      28.126  12.826  23.605  1.00  0.00     0.156 C 
HETATM   41  C   LIG     1      26.257  16.505  25.246  1.00  0.00     0.090 C 
HETATM   42  H   LIG     1      28.377  16.386  25.450  1.00  0.00     0.166 HD
ENDBRANCH  32  33
ENDBRANCH   4  32
BRANCH   1  43
HETATM   43  N   LIG     1      27.330   8.316  19.923  1.00  0.00    -0.377 N 
HETATM   44  C   LIG     1      28.468   8.151  18.990  1.00  0.00     0.153 C 
HETATM   45  C   LIG     1      28.129   7.355  17.708  1.00  0.00     0.292 C 
HETATM   46  N   LIG     1      27.354   6.112  17.943  1.00  0.00     0.095 N 
HETATM   47  C   LIG     1      26.071   6.579  18.500  1.00  0.00     0.292 C 
HETATM   48  C   LIG     1      26.201   7.355  19.813  1.00  0.00     0.153 C 
BRANCH  46  49
HETATM   49  C   LIG     1      28.085   5.196  18.859  1.00  0.00     0.307 C 
BRANCH  49  50
HETATM   50  C   LIG     1      27.750   3.722  18.678  1.00  0.00    -0.045 C 
HETATM   51  C   LIG     1      27.893   3.236  17.250  1.00  0.00     0.037 C 
HETATM   52  C   LIG     1      28.174   1.736  17.140  1.00  0.00     0.013 C 
HETATM   53  C   LIG     1      27.147   0.892  17.910  1.00  0.00    -0.043 C 
HETATM   54  C   LIG     1      27.012   1.402  19.375  1.00  0.00     0.048 C 
HETATM   55  C   LIG     1      25.782   0.931  17.188  1.00  0.00     0.015 C 
HETATM   56  C   LIG     1      27.620  -0.578  17.916  1.00  0.00     0.015 C 
HETATM   57  C   LIG     1      27.396   2.855  19.658  1.00  0.00    -0.043 C 
BRANCH  57  58
HETATM   58  C   LIG     1      27.371   3.167  21.114  1.00  0.00    -0.029 C 
HETATM   59  C   LIG     1      28.363   2.688  21.982  1.00  0.00     0.013 C 
HETATM   60  C   LIG     1      28.477   3.180  23.289  1.00  0.00     0.024 C 
HETATM   61  C   LIG     1      27.622   4.191  23.713  1.00  0.00     0.034 C 
HETATM   62 CL   LIG     1      27.995   5.121  25.114  1.00  0.00    -0.084 Cl
HETATM   63  C   LIG     1      26.547   4.576  22.922  1.00  0.00     0.024 C 
HETATM   64  C   LIG     1      26.436   4.085  21.618  1.00  0.00     0.013 C 
ENDBRANCH  57  58
ENDBRANCH  49  50
ENDBRANCH  46  49
ENDBRANCH   1  43
TORSDOF 13
ENDMDL
MODEL 3
REMARK VINA RESULT:     -11.4      3.588      6.288
REMARK  13 active torsions:
REMARK  status: ('A' for Active; 'I' for Inactive)
REMARK    1  A    between atoms: S_2  and  N_13 
REMARK    2  A    between atoms: S_2  and  C_52 
REMARK    3  A    between atoms: O_4  and  C_45 
REMARK    4  A    between atoms: O_4  and  C_55 
REMARK    5  A    between atoms: N_10  and  C_23 
REMARK    6  A    between atoms: N_11  and  C_33 
REMARK    7  A    between atoms: N_12  and  C_42 
REMARK    8  A    between atoms: N_12  and  C_48 
REMARK       I    between atoms: N_13  and  C_49 
REMARK    9  A    between atoms: N_14  and  C_50 
REMARK   10  A    between atoms: C_21  and  C_23 
REMARK   11  A    between atoms: C_22  and  C_28 
REMARK   12  A    between atoms: C_36  and  C_42 
REMARK   13  A    between atoms: C_47  and  C_49 
ROOT
HETATM    1  C   LIG     1      29.696   6.075  20.821  1.00  0.00     0.033 C 
HETATM    2  C   LIG     1      29.645   5.044  21.780  1.00  0.00     0.067 C 
HETATM    3  C   LIG     1      29.425   5.688  19.504  1.00  0.00     0.030 C 
HETATM    4  C   LIG     1      29.303   3.705  21.457  1.00  0.00     0.094 C 
HETATM    5  C   LIG     1      29.034   4.397  19.174  1.00  0.00     0.022 C 
HETATM    6  C   LIG     1      28.853   3.415  20.156  1.00  0.00     0.067 C 
ENDROOT
BRANCH   6   7
HETATM    7  C   LIG     1      28.070   2.243  19.619  1.00  0.00     0.268 C 
HETATM    8  O   LIG     1      27.660   1.390  20.375  1.00  0.00    -0.267 OA
HETATM    9  N   LIG     1      27.884   2.171  18.246  1.00  0.00    -0.246 N 
HETATM   10  H   LIG     1      28.295   2.826  17.583  1.00  0.00     0.182 HD
BRANCH   9  11
HETATM   11  S   LIG     1      27.192   0.856  17.511  1.00  0.00     0.265 S 
HETATM   12  O   LIG     1      28.220  -0.177  17.495  1.00  0.00    -0.200 OA
HETATM   13  O   LIG     1      25.915   0.589  18.109  1.00  0.00    -0.200 OA
BRANCH  11  14
HETATM   14  C   LIG     1      26.930   1.329  15.811  1.00  0.00     0.082 A 
HETATM   15  C   LIG     1      26.241   0.512  14.909  1.00  0.00     0.063 A 
HETATM   16  C   LIG     1      25.808   1.030  13.643  1.00  0.00     0.130 A 
HETATM   17  C   LIG     1      25.983   2.407  13.317  1.00  0.00     0.061 A 
HETATM   18  C   LIG     1      26.750   3.156  14.255  1.00  0.00     0.033 A 
HETATM   19  C   LIG     1      27.251   2.616  15.446  1.00  0.00     0.028 A 
BRANCH  16  20
HETATM   20  N   LIG     1      25.179  -0.027  12.757  1.00  0.00    -0.113 N 
HETATM   21  O   LIG     1      24.358  -0.800  13.225  1.00  0.00    -0.532 OA
HETATM   22  O   LIG     1      25.553  -0.058  11.596  1.00  0.00    -0.532 OA
ENDBRANCH  16  20
BRANCH  17  23
HETATM   23  N   LIG     1      25.573   3.145  12.185  1.00  0.00    -0.388 N 
HETATM   24  H   LIG     1      24.745   2.768  11.733  1.00  0.00     0.159 HD
BRANCH  23  25
HETATM   25  C   LIG     1      26.510   3.786  11.256  1.00  0.00     0.124 C 
BRANCH  25  26
HETATM   26  C   LIG     1      27.493   2.872  10.511  1.00  0.00     0.007 C 
HETATM   27  C   LIG     1      28.801   3.643  10.188  1.00  0.00     0.032 C 
HETATM   28  C   LIG     1      28.728   4.457   8.896  1.00  0.00     0.168 C 
HETATM   29  O   LIG     1      28.361   3.611   7.810  1.00  0.00    -0.391 OA
HETATM   30  C   LIG     1      27.045   3.092   7.984  1.00  0.00     0.168 C 
HETATM   31  C   LIG     1      26.968   2.216   9.231  1.00  0.00     0.032 C 
ENDBRANCH  25  26
ENDBRANCH  23  25
ENDBRANCH  17  23
ENDBRANCH  11  14
ENDBRANCH   9  11
ENDBRANCH   6   7
BRANCH   4  32
HETATM   32  O   LIG     1      29.367   2.844  22.542  1.00  0.00    -0.308 OA
BRANCH  32  33
HETATM   33  C   LIG     1      28.378   2.888  23.515  1.00  0.00     0.094 C 
HETATM   34  C   LIG     1      28.787   2.729  24.842  1.00  0.00     0.054 C 
HETATM   35  C   LIG     1      28.066   3.455  25.804  1.00  0.00     0.014 C 
HETATM   36  C   LIG     1      26.867   4.032  25.405  1.00  0.00     0.137 C 
HETATM   37  C   LIG     1      28.293   3.849  27.148  1.00  0.00     0.032 C 
HETATM   38  N   LIG     1      26.254   3.859  24.215  1.00  0.00    -0.240 NA
HETATM   39  N   LIG     1      26.456   4.873  26.407  1.00  0.00    -0.350 N 
HETATM   40  C   LIG     1      27.061   3.269  23.297  1.00  0.00     0.156 C 
HETATM   41  C   LIG     1      27.346   4.805  27.454  1.00  0.00     0.090 C 
HETATM   42  H   LIG     1      25.684   5.522  26.325  1.00  0.00     0.166 HD
ENDBRANCH  32  33
ENDBRANCH   4  32
BRANCH   1  43
HETATM   43  N   LIG     1      29.978   7.426  21.143  1.00  0.00    -0.377 N 
HETATM   44  C   LIG     1      28.967   8.423  20.722  1.00  0.00     0.153 C 
HETATM   45  C   LIG     1      29.091   9.793  21.428  1.00  0.00     0.292 C 
HETATM   46  N   LIG     1      29.285   9.712  22.897  1.00  0.00     0.095 N 
HETATM   47  C   LIG     1      30.586   9.035  23.059  1.00  0.00     0.292 C 
HETATM   48  C   LIG     1      30.641   7.627  22.458  1.00  0.00     0.153 C 
BRANCH  46  49
HETATM   49  C   LIG     1      28.164   8.975  23.540  1.00  0.00     0.307 C 
BRANCH  49  50
HETATM   50  C   LIG     1      28.058   9.176  25.046  1.00  0.00    -0.045 C 
HETATM   51  C   LIG     1      28.555   7.994  25.854  1.00  0.00     0.037 C 
HETATM   52  C   LIG     1      29.034   8.371  27.257  1.00  0.00     0.013 C 
HETATM   53  C   LIG     1      27.980   9.169  28.039  1.00  0.00    -0.043 C 
HETATM   54  C   LIG     1      27.480  10.380  27.197  1.00  0.00     0.048 C 
HETATM   55  C   LIG     1      26.803   8.250  28.430  1.00  0.00     0.015 C 
HETATM   56  C   LIG     1      28.618   9.680  29.349  1.00  0.00     0.015 C 
HETATM   57  C   LIG     1      27.615  10.291  25.676  1.00  0.00    -0.043 C 
BRANCH  57  58
HETATM   58  C   LIG     1      27.248  11.569  25.005  1.00  0.00    -0.029 C 
HETATM   59  C   LIG     1      26.442  11.586  23.857  1.00  0.00     0.013 C 
HETATM   60  C   LIG     1      25.898  12.784  23.375  1.00  0.00     0.024 C 
HETATM   61  C   LIG     1      26.123  13.964  24.075  1.00  0.00     0.034 C 
HETATM   62 CL   LIG     1      25.140  15.350  23.793  1.00  0.00    -0.084 Cl
HETATM   63  C   LIG     1      27.031  13.991  25.127  1.00  0.00     0.024 C 
HETATM   64  C   LIG     1      27.571  12.794  25.606  1.00  0.00     0.013 C 
ENDBRANCH  57  58
ENDBRANCH  49  50
ENDBRANCH  46  49
ENDBRANCH   1  43
TORSDOF 13
ENDMDL
MODEL 4
REMARK VINA RESULT:     -11.4      3.383      6.152
REMARK  13 active torsions:
REMARK  status: ('A' for Active; 'I' for Inactive)
REMARK    1  A    between atoms: S_2  and  N_13 
REMARK    2  A    between atoms: S_2  and  C_52 
REMARK    3  A    between atoms: O_4  and  C_45 
REMARK    4  A    between atoms: O_4  and  C_55 
REMARK    5  A    between atoms: N_10  and  C_23 
REMARK    6  A    between atoms: N_11  and  C_33 
REMARK    7  A    between atoms: N_12  and  C_42 
REMARK    8  A    between atoms: N_12  and  C_48 
REMARK       I    between atoms: N_13  and  C_49 
REMARK    9  A    between atoms: N_14  and  C_50 
REMARK   10  A    between atoms: C_21  and  C_23 
REMARK   11  A    between atoms: C_22  and  C_28 
REMARK   12  A    between atoms: C_36  and  C_42 
REMARK   13  A    between atoms: C_47  and  C_49 
ROOT
HETATM    1  C   LIG     1      28.474   7.794  20.082  1.00  0.00     0.033 C 
HETATM    2  C   LIG     1      27.506   7.037  20.771  1.00  0.00     0.067 C 
HETATM    3  C   LIG     1      29.314   7.067  19.232  1.00  0.00     0.030 C 
HETATM    4  C   LIG     1      27.350   5.638  20.596  1.00  0.00     0.094 C 
HETATM    5  C   LIG     1      29.145   5.708  19.003  1.00  0.00     0.022 C 
HETATM    6  C   LIG     1      28.092   4.994  19.587  1.00  0.00     0.067 C 
ENDROOT
BRANCH   6   7
HETATM    7  C   LIG     1      27.884   3.667  18.902  1.00  0.00     0.268 C 
HETATM    8  O   LIG     1      26.836   3.430  18.344  1.00  0.00    -0.267 OA
HETATM    9  N   LIG     1      28.913   2.739  18.977  1.00  0.00    -0.246 N 
HETATM   10  H   LIG     1      29.766   2.880  19.515  1.00  0.00     0.182 HD
BRANCH   9  11
HETATM   11  S   LIG     1      28.752   1.187  18.416  1.00  0.00     0.265 S 
HETATM   12  O   LIG     1      30.079   0.592  18.506  1.00  0.00    -0.200 OA
HETATM   13  O   LIG     1      27.636   0.557  19.063  1.00  0.00    -0.200 OA
BRANCH  11  14
HETATM   14  C   LIG     1      28.385   1.334  16.676  1.00  0.00     0.082 A 
HETATM   15  C   LIG     1      27.311   0.661  16.083  1.00  0.00     0.063 A 
HETATM   16  C   LIG     1      26.876   1.009  14.762  1.00  0.00     0.130 A 
HETATM   17  C   LIG     1      27.460   2.107  14.064  1.00  0.00     0.061 A 
HETATM   18  C   LIG     1      28.587   2.697  14.703  1.00  0.00     0.033 A 
HETATM   19  C   LIG     1      29.065   2.287  15.954  1.00  0.00     0.028 A 
BRANCH  16  20
HETATM   20  N   LIG     1      25.778   0.102  14.244  1.00  0.00    -0.113 N 
HETATM   21  O   LIG     1      24.857  -0.217  14.981  1.00  0.00    -0.532 OA
HETATM   22  O   LIG     1      25.887  -0.284  13.092  1.00  0.00    -0.532 OA
ENDBRANCH  16  20
BRANCH  17  23
HETATM   23  N   LIG     1      27.146   2.674  12.810  1.00  0.00    -0.388 N 
HETATM   24  H   LIG     1      26.205   3.058  12.762  1.00  0.00     0.159 HD
BRANCH  23  25
HETATM   25  C   LIG     1      27.623   2.129  11.533  1.00  0.00     0.124 C 
BRANCH  25  26
HETATM   26  C   LIG     1      26.573   1.882  10.441  1.00  0.00     0.007 C 
HETATM   27  C   LIG     1      27.075   2.437   9.081  1.00  0.00     0.032 C 
HETATM   28  C   LIG     1      26.790   3.926   8.884  1.00  0.00     0.168 C 
HETATM   29  O   LIG     1      25.399   4.179   9.048  1.00  0.00    -0.391 OA
HETATM   30  C   LIG     1      24.979   3.905  10.383  1.00  0.00     0.168 C 
HETATM   31  C   LIG     1      25.169   2.429  10.718  1.00  0.00     0.032 C 
ENDBRANCH  25  26
ENDBRANCH  23  25
ENDBRANCH  17  23
ENDBRANCH  11  14
ENDBRANCH   9  11
ENDBRANCH   6   7
BRANCH   4  32
HETATM   32  O   LIG     1      26.374   5.087  21.410  1.00  0.00    -0.308 OA
BRANCH  32  33
HETATM   33  C   LIG     1      26.734   4.490  22.610  1.00  0.00     0.094 C 
HETATM   34  C   LIG     1      27.859   5.004  23.261  1.00  0.00     0.054 C 
HETATM   35  C   LIG     1      27.823   4.988  24.665  1.00  0.00     0.014 C 
HETATM   36  C   LIG     1      26.829   4.231  25.272  1.00  0.00     0.137 C 
HETATM   37  C   LIG     1      28.535   5.651  25.698  1.00  0.00     0.032 C 
HETATM   38  N   LIG     1      25.967   3.400  24.651  1.00  0.00    -0.240 NA
HETATM   39  N   LIG     1      26.828   4.541  26.608  1.00  0.00    -0.350 N 
HETATM   40  C   LIG     1      25.964   3.567  23.304  1.00  0.00     0.156 C 
HETATM   41  C   LIG     1      27.834   5.444  26.869  1.00  0.00     0.090 C 
HETATM   42  H   LIG     1      26.119   4.236  27.263  1.00  0.00     0.166 HD
ENDBRANCH  32  33
ENDBRANCH   4  32
BRANCH   1  43
HETATM   43  N   LIG     1      28.598   9.201  20.205  1.00  0.00    -0.377 N 
HETATM   44  C   LIG     1      27.411   9.997  19.820  1.00  0.00     0.153 C 
HETATM   45  C   LIG     1      27.424  11.453  20.342  1.00  0.00     0.292 C 
HETATM   46  N   LIG     1      27.808  11.590  21.769  1.00  0.00     0.095 N 
HETATM   47  C   LIG     1      29.202  11.111  21.822  1.00  0.00     0.292 C 
HETATM   48  C   LIG     1      29.383   9.655  21.383  1.00  0.00     0.153 C 
BRANCH  46  49
HETATM   49  C   LIG     1      26.892  10.809  22.642  1.00  0.00     0.307 C 
BRANCH  49  50
HETATM   50  C   LIG     1      27.356  10.677  24.086  1.00  0.00    -0.045 C 
HETATM   51  C   LIG     1      27.924   9.313  24.421  1.00  0.00     0.037 C 
HETATM   52  C   LIG     1      28.919   9.333  25.583  1.00  0.00     0.013 C 
HETATM   53  C   LIG     1      28.341  10.011  26.834  1.00  0.00    -0.043 C 
HETATM   54  C   LIG     1      27.762  11.412  26.476  1.00  0.00     0.048 C 
HETATM   55  C   LIG     1      27.255   9.115  27.468  1.00  0.00     0.015 C 
HETATM   56  C   LIG     1      29.469  10.170  27.876  1.00  0.00     0.015 C 
HETATM   57  C   LIG     1      27.336  11.653  25.027  1.00  0.00    -0.043 C 
BRANCH  57  58
HETATM   58  C   LIG     1      26.950  13.071  24.785  1.00  0.00    -0.029 C 
HETATM   59  C   LIG     1      25.881  13.404  23.941  1.00  0.00     0.013 C 
HETATM   60  C   LIG     1      25.366  14.706  23.908  1.00  0.00     0.024 C 
HETATM   61  C   LIG     1      25.895  15.670  24.760  1.00  0.00     0.034 C 
HETATM   62 CL   LIG     1      25.031  17.125  25.077  1.00  0.00    -0.084 Cl
HETATM   63  C   LIG     1      27.041  15.399  25.496  1.00  0.00     0.024 C 
HETATM   64  C   LIG     1      27.553  14.097  25.528  1.00  0.00     0.013 C 
ENDBRANCH  57  58
ENDBRANCH  49  50
ENDBRANCH  46  49
ENDBRANCH   1  43
TORSDOF 13
ENDMDL
MODEL 5
REMARK VINA RESULT:     -11.3      3.491      6.235
REMARK  13 active torsions:
REMARK  status: ('A' for Active; 'I' for Inactive)
REMARK    1  A    between atoms: S_2  and  N_13 
REMARK    2  A    between atoms: S_2  and  C_52 
REMARK    3  A    between atoms: O_4  and  C_45 
REMARK    4  A    between atoms: O_4  and  C_55 
REMARK    5  A    between atoms: N_10  and  C_23 
REMARK    6  A    between atoms: N_11  and  C_33 
REMARK    7  A    between atoms: N_12  and  C_42 
REMARK    8  A    between atoms: N_12  and  C_48 
REMARK       I    between atoms: N_13  and  C_49 
REMARK    9  A    between atoms: N_14  and  C_50 
REMARK   10  A    between atoms: C_21  and  C_23 
REMARK   11  A    between atoms: C_22  and  C_28 
REMARK   12  A    between atoms: C_36  and  C_42 
REMARK   13  A    between atoms: C_47  and  C_49 
ROOT
HETATM    1  C   LIG     1      29.501   6.221  20.627  1.00  0.00     0.033 C 
HETATM    2  C   LIG     1      29.513   5.163  21.559  1.00  0.00     0.067 C 
HETATM    3  C   LIG     1      29.145   5.869  19.321  1.00  0.00     0.030 C 
HETATM    4  C   LIG     1      29.150   3.833  21.223  1.00  0.00     0.094 C 
HETATM    5  C   LIG     1      28.733   4.587  18.982  1.00  0.00     0.022 C 
HETATM    6  C   LIG     1      28.615   3.578  19.946  1.00  0.00     0.067 C 
ENDROOT
BRANCH   6   7
HETATM    7  C   LIG     1      27.799   2.420  19.430  1.00  0.00     0.268 C 
HETATM    8  O   LIG     1      27.164   1.735  20.201  1.00  0.00    -0.267 OA
HETATM    9  N   LIG     1      27.844   2.161  18.068  1.00  0.00    -0.246 N 
HETATM   10  H   LIG     1      28.439   2.666  17.414  1.00  0.00     0.182 HD
BRANCH   9  11
HETATM   11  S   LIG     1      27.132   0.823  17.395  1.00  0.00     0.265 S 
HETATM   12  O   LIG     1      28.070  -0.273  17.602  1.00  0.00    -0.200 OA
HETATM   13  O   LIG     1      25.781   0.712  17.864  1.00  0.00    -0.200 OA
BRANCH  11  14
HETATM   14  C   LIG     1      27.095   1.124  15.636  1.00  0.00     0.082 A 
HETATM   15  C   LIG     1      26.240   0.424  14.780  1.00  0.00     0.063 A 
HETATM   16  C   LIG     1      26.032   0.872  13.433  1.00  0.00     0.130 A 
HETATM   17  C   LIG     1      26.613   2.089  12.969  1.00  0.00     0.061 A 
HETATM   18  C   LIG     1      27.521   2.707  13.875  1.00  0.00     0.033 A 
HETATM   19  C   LIG     1      27.790   2.210  15.156  1.00  0.00     0.028 A 
BRANCH  16  20
HETATM   20  N   LIG     1      25.164  -0.072  12.624  1.00  0.00    -0.113 N 
HETATM   21  O   LIG     1      24.242  -0.661  13.165  1.00  0.00    -0.532 OA
HETATM   22  O   LIG     1      25.456  -0.206  11.447  1.00  0.00    -0.532 OA
ENDBRANCH  16  20
BRANCH  17  23
HETATM   23  N   LIG     1      26.485   2.758  11.732  1.00  0.00    -0.388 N 
HETATM   24  H   LIG     1      27.266   2.596  11.101  1.00  0.00     0.159 HD
BRANCH  23  25
HETATM   25  C   LIG     1      25.881   4.088  11.590  1.00  0.00     0.124 C 
BRANCH  25  26
HETATM   26  C   LIG     1      24.797   4.476  12.606  1.00  0.00     0.007 C 
HETATM   27  C   LIG     1      23.481   4.844  11.870  1.00  0.00     0.032 C 
HETATM   28  C   LIG     1      23.428   6.299  11.402  1.00  0.00     0.168 C 
HETATM   29  O   LIG     1      23.649   7.172  12.505  1.00  0.00    -0.391 OA
HETATM   30  C   LIG     1      24.963   7.011  13.034  1.00  0.00     0.168 C 
HETATM   31  C   LIG     1      25.158   5.600  13.581  1.00  0.00     0.032 C 
ENDBRANCH  25  26
ENDBRANCH  23  25
ENDBRANCH  17  23
ENDBRANCH  11  14
ENDBRANCH   9  11
ENDBRANCH   6   7
BRANCH   4  32
HETATM   32  O   LIG     1      29.284   2.944  22.278  1.00  0.00    -0.308 OA
BRANCH  32  33
HETATM   33  C   LIG     1      28.334   2.926  23.289  1.00  0.00     0.094 C 
HETATM   34  C   LIG     1      28.802   2.770  24.597  1.00  0.00     0.054 C 
HETATM   35  C   LIG     1      28.086   3.447  25.597  1.00  0.00     0.014 C 
HETATM   36  C   LIG     1      26.845   3.969  25.253  1.00  0.00     0.137 C 
HETATM   37  C   LIG     1      28.347   3.833  26.937  1.00  0.00     0.032 C 
HETATM   38  N   LIG     1      26.195   3.783  24.086  1.00  0.00    -0.240 NA
HETATM   39  N   LIG     1      26.435   4.777  26.284  1.00  0.00    -0.350 N 
HETATM   40  C   LIG     1      26.992   3.245  23.128  1.00  0.00     0.156 C 
HETATM   41  C   LIG     1      27.368   4.738  27.294  1.00  0.00     0.090 C 
HETATM   42  H   LIG     1      25.629   5.388  26.242  1.00  0.00     0.166 HD
ENDBRANCH  32  33
ENDBRANCH   4  32
BRANCH   1  43
HETATM   43  N   LIG     1      29.805   7.563  20.966  1.00  0.00    -0.377 N 
HETATM   44  C   LIG     1      28.788   8.575  20.599  1.00  0.00     0.153 C 
HETATM   45  C   LIG     1      28.946   9.929  21.328  1.00  0.00     0.292 C 
HETATM   46  N   LIG     1      29.188   9.817  22.788  1.00  0.00     0.095 N 
HETATM   47  C   LIG     1      30.488   9.128  22.893  1.00  0.00     0.292 C 
HETATM   48  C   LIG     1      30.512   7.733  22.263  1.00  0.00     0.153 C 
BRANCH  46  49
HETATM   49  C   LIG     1      28.083   9.076  23.453  1.00  0.00     0.307 C 
BRANCH  49  50
HETATM   50  C   LIG     1      28.035   9.237  24.966  1.00  0.00    -0.045 C 
HETATM   51  C   LIG     1      28.549   8.030  25.724  1.00  0.00     0.037 C 
HETATM   52  C   LIG     1      29.085   8.364  27.117  1.00  0.00     0.013 C 
HETATM   53  C   LIG     1      28.070   9.152  27.959  1.00  0.00    -0.043 C 
HETATM   54  C   LIG     1      27.552  10.390  27.169  1.00  0.00     0.048 C 
HETATM   55  C   LIG     1      26.898   8.234  28.370  1.00  0.00     0.015 C 
HETATM   56  C   LIG     1      28.762   9.621  29.257  1.00  0.00     0.015 C 
HETATM   57  C   LIG     1      27.629  10.340  25.642  1.00  0.00    -0.043 C 
BRANCH  57  58
HETATM   58  C   LIG     1      27.250  11.639  25.019  1.00  0.00    -0.029 C 
HETATM   59  C   LIG     1      26.410  11.694  23.898  1.00  0.00     0.013 C 
HETATM   60  C   LIG     1      25.860  12.909  23.467  1.00  0.00     0.024 C 
HETATM   61  C   LIG     1      26.116  14.067  24.193  1.00  0.00     0.034 C 
HETATM   62 CL   LIG     1      25.136  15.467  23.980  1.00  0.00    -0.084 Cl
HETATM   63  C   LIG     1      27.056  14.058  25.215  1.00  0.00     0.024 C 
HETATM   64  C   LIG     1      27.602  12.844  25.644  1.00  0.00     0.013 C 
ENDBRANCH  57  58
ENDBRANCH  49  50
ENDBRANCH  46  49
ENDBRANCH   1  43
TORSDOF 13
ENDMDL
MODEL 6
REMARK VINA RESULT:     -11.3      3.684     11.176
REMARK  13 active torsions:
REMARK  status: ('A' for Active; 'I' for Inactive)
REMARK    1  A    between atoms: S_2  and  N_13 
REMARK    2  A    between atoms: S_2  and  C_52 
REMARK    3  A    between atoms: O_4  and  C_45 
REMARK    4  A    between atoms: O_4  and  C_55 
REMARK    5  A    between atoms: N_10  and  C_23 
REMARK    6  A    between atoms: N_11  and  C_33 
REMARK    7  A    between atoms: N_12  and  C_42 
REMARK    8  A    between atoms: N_12  and  C_48 
REMARK       I    between atoms: N_13  and  C_49 
REMARK    9  A    between atoms: N_14  and  C_50 
REMARK   10  A    between atoms: C_21  and  C_23 
REMARK   11  A    between atoms: C_22  and  C_28 
REMARK   12  A    between atoms: C_36  and  C_42 
REMARK   13  A    between atoms: C_47  and  C_49 
ROOT
HETATM    1  C   LIG     1      30.578   4.279  23.320  1.00  0.00     0.033 C 
HETATM    2  C   LIG     1      29.406   5.012  23.046  1.00  0.00     0.067 C 
HETATM    3  C   LIG     1      31.369   4.776  24.362  1.00  0.00     0.030 C 
HETATM    4  C   LIG     1      29.016   6.154  23.792  1.00  0.00     0.094 C 
HETATM    5  C   LIG     1      30.980   5.857  25.141  1.00  0.00     0.022 C 
HETATM    6  C   LIG     1      29.746   6.491  24.947  1.00  0.00     0.067 C 
ENDROOT
BRANCH   6   7
HETATM    7  C   LIG     1      29.383   7.354  26.129  1.00  0.00     0.268 C 
HETATM    8  O   LIG     1      30.211   8.091  26.618  1.00  0.00    -0.267 OA
HETATM    9  N   LIG     1      28.099   7.235  26.639  1.00  0.00    -0.246 N 
HETATM   10  H   LIG     1      27.414   6.560  26.303  1.00  0.00     0.182 HD
BRANCH   9  11
HETATM   11  S   LIG     1      27.623   7.998  28.033  1.00  0.00     0.265 S 
HETATM   12  O   LIG     1      26.247   7.579  28.266  1.00  0.00    -0.200 OA
HETATM   13  O   LIG     1      28.616   7.801  29.050  1.00  0.00    -0.200 OA
BRANCH  11  14
HETATM   14  C   LIG     1      27.557   9.737  27.638  1.00  0.00     0.082 A 
HETATM   15  C   LIG     1      28.009  10.719  28.526  1.00  0.00     0.063 A 
HETATM   16  C   LIG     1      28.201  12.068  28.082  1.00  0.00     0.130 A 
HETATM   17  C   LIG     1      28.031  12.418  26.710  1.00  0.00     0.061 A 
HETATM   18  C   LIG     1      27.507  11.383  25.884  1.00  0.00     0.033 A 
HETATM   19  C   LIG     1      27.232  10.091  26.349  1.00  0.00     0.028 A 
BRANCH  16  20
HETATM   20  N   LIG     1      28.586  13.011  29.205  1.00  0.00    -0.113 N 
HETATM   21  O   LIG     1      28.813  14.186  28.959  1.00  0.00    -0.532 OA
HETATM   22  O   LIG     1      28.665  12.525  30.321  1.00  0.00    -0.532 OA
ENDBRANCH  16  20
BRANCH  17  23
HETATM   23  N   LIG     1      28.238  13.643  26.039  1.00  0.00    -0.388 N 
HETATM   24  H   LIG     1      28.197  14.454  26.652  1.00  0.00     0.159 HD
BRANCH  23  25
HETATM   25  C   LIG     1      27.758  13.911  24.678  1.00  0.00     0.124 C 
BRANCH  25  26
HETATM   26  C   LIG     1      26.253  13.748  24.421  1.00  0.00     0.007 C 
HETATM   27  C   LIG     1      26.018  12.999  23.082  1.00  0.00     0.032 C 
HETATM   28  C   LIG     1      26.030  13.915  21.858  1.00  0.00     0.168 C 
HETATM   29  O   LIG     1      25.077  14.960  22.025  1.00  0.00    -0.391 OA
HETATM   30  C   LIG     1      25.429  15.809  23.114  1.00  0.00     0.168 C 
HETATM   31  C   LIG     1      25.424  15.035  24.429  1.00  0.00     0.032 C 
ENDBRANCH  25  26
ENDBRANCH  23  25
ENDBRANCH  17  23
ENDBRANCH  11  14
ENDBRANCH   9  11
ENDBRANCH   6   7
BRANCH   4  32
HETATM   32  O   LIG     1      27.858   6.751  23.318  1.00  0.00    -0.308 OA
BRANCH  32  33
HETATM   33  C   LIG     1      27.945   7.832  22.454  1.00  0.00     0.094 C 
HETATM   34  C   LIG     1      28.021   9.103  23.033  1.00  0.00     0.054 C 
HETATM   35  C   LIG     1      28.804  10.049  22.353  1.00  0.00     0.014 C 
HETATM   36  C   LIG     1      29.197   9.741  21.056  1.00  0.00     0.137 C 
HETATM   37  C   LIG     1      29.408  11.287  22.691  1.00  0.00     0.032 C 
HETATM   38  N   LIG     1      28.796   8.677  20.331  1.00  0.00    -0.240 NA
HETATM   39  N   LIG     1      30.131  10.670  20.674  1.00  0.00    -0.350 N 
HETATM   40  C   LIG     1      28.161   7.745  21.085  1.00  0.00     0.156 C 
HETATM   41  C   LIG     1      30.302  11.589  21.684  1.00  0.00     0.090 C 
HETATM   42  H   LIG     1      30.684  10.608  19.828  1.00  0.00     0.166 HD
ENDBRANCH  32  33
ENDBRANCH   4  32
BRANCH   1  43
HETATM   43  N   LIG     1      30.946   3.104  22.619  1.00  0.00    -0.377 N 
HETATM   44  C   LIG     1      29.842   2.179  22.271  1.00  0.00     0.153 C 
HETATM   45  C   LIG     1      30.199   1.145  21.178  1.00  0.00     0.292 C 
HETATM   46  N   LIG     1      30.907   1.712  20.003  1.00  0.00     0.095 N 
HETATM   47  C   LIG     1      32.185   2.207  20.548  1.00  0.00     0.292 C 
HETATM   48  C   LIG     1      32.034   3.288  21.622  1.00  0.00     0.153 C 
BRANCH  46  49
HETATM   49  C   LIG     1      30.097   2.781  19.361  1.00  0.00     0.307 C 
BRANCH  49  50
HETATM   50  C   LIG     1      29.104   2.283  18.319  1.00  0.00    -0.045 C 
HETATM   51  C   LIG     1      29.760   1.653  17.107  1.00  0.00     0.037 C 
HETATM   52  C   LIG     1      28.870   0.636  16.390  1.00  0.00     0.013 C 
HETATM   53  C   LIG     1      27.492   1.215  16.033  1.00  0.00    -0.043 C 
HETATM   54  C   LIG     1      26.831   1.857  17.288  1.00  0.00     0.048 C 
HETATM   55  C   LIG     1      27.631   2.251  14.897  1.00  0.00     0.015 C 
HETATM   56  C   LIG     1      26.597   0.073  15.505  1.00  0.00     0.015 C 
HETATM   57  C   LIG     1      27.753   2.322  18.416  1.00  0.00    -0.043 C 
BRANCH  57  58
HETATM   58  C   LIG     1      26.991   2.770  19.615  1.00  0.00    -0.029 C 
HETATM   59  C   LIG     1      26.562   1.859  20.591  1.00  0.00     0.013 C 
HETATM   60  C   LIG     1      26.069   2.303  21.825  1.00  0.00     0.024 C 
HETATM   61  C   LIG     1      26.049   3.666  22.101  1.00  0.00     0.034 C 
HETATM   62 CL   LIG     1      25.880   4.228  23.719  1.00  0.00    -0.084 Cl
HETATM   63  C   LIG     1      26.333   4.586  21.099  1.00  0.00     0.024 C 
HETATM   64  C   LIG     1      26.826   4.140  19.869  1.00  0.00     0.013 C 
ENDBRANCH  57  58
ENDBRANCH  49  50
ENDBRANCH  46  49
ENDBRANCH   1  43
TORSDOF 13
ENDMDL
MODEL 7
REMARK VINA RESULT:     -11.2      3.639      7.943
REMARK  13 active torsions:
REMARK  status: ('A' for Active; 'I' for Inactive)
REMARK    1  A    between atoms: S_2  and  N_13 
REMARK    2  A    between atoms: S_2  and  C_52 
REMARK    3  A    between atoms: O_4  and  C_45 
REMARK    4  A    between atoms: O_4  and  C_55 
REMARK    5  A    between atoms: N_10  and  C_23 
REMARK    6  A    between atoms: N_11  and  C_33 
REMARK    7  A    between atoms: N_12  and  C_42 
REMARK    8  A    between atoms: N_12  and  C_48 
REMARK       I    between atoms: N_13  and  C_49 
REMARK    9  A    between atoms: N_14  and  C_50 
REMARK   10  A    between atoms: C_21  and  C_23 
REMARK   11  A    between atoms: C_22  and  C_28 
REMARK   12  A    between atoms: C_36  and  C_42 
REMARK   13  A    between atoms: C_47  and  C_49 
ROOT
HETATM    1  C   LIG     1      26.652  13.012  21.224  1.00  0.00     0.033 C 
HETATM    2  C   LIG     1      26.665  11.921  22.117  1.00  0.00     0.067 C 
HETATM    3  C   LIG     1      27.117  12.738  19.933  1.00  0.00     0.030 C 
HETATM    4  C   LIG     1      27.077  10.617  21.738  1.00  0.00     0.094 C 
HETATM    5  C   LIG     1      27.472  11.460  19.525  1.00  0.00     0.022 C 
HETATM    6  C   LIG     1      27.348  10.359  20.381  1.00  0.00     0.067 C 
ENDROOT
BRANCH   6   7
HETATM    7  C   LIG     1      27.417   9.061  19.617  1.00  0.00     0.268 C 
HETATM    8  O   LIG     1      27.763   9.059  18.456  1.00  0.00    -0.267 OA
HETATM    9  N   LIG     1      27.034   7.905  20.282  1.00  0.00    -0.246 N 
HETATM   10  H   LIG     1      26.655   7.892  21.227  1.00  0.00     0.182 HD
BRANCH   9  11
HETATM   11  S   LIG     1      26.901   6.441  19.513  1.00  0.00     0.265 S 
HETATM   12  O   LIG     1      25.513   6.345  19.079  1.00  0.00    -0.200 OA
HETATM   13  O   LIG     1      27.964   6.303  18.559  1.00  0.00    -0.200 OA
BRANCH  11  14
HETATM   14  C   LIG     1      27.116   5.204  20.780  1.00  0.00     0.082 A 
HETATM   15  C   LIG     1      28.366   4.927  21.345  1.00  0.00     0.063 A 
HETATM   16  C   LIG     1      28.466   4.138  22.539  1.00  0.00     0.130 A 
HETATM   17  C   LIG     1      27.296   3.704  23.229  1.00  0.00     0.061 A 
HETATM   18  C   LIG     1      26.068   3.967  22.558  1.00  0.00     0.033 A 
HETATM   19  C   LIG     1      25.986   4.656  21.342  1.00  0.00     0.028 A 
BRANCH  16  20
HETATM   20  N   LIG     1      29.899   3.850  22.938  1.00  0.00    -0.113 N 
HETATM   21  O   LIG     1      30.146   2.909  23.676  1.00  0.00    -0.532 OA
HETATM   22  O   LIG     1      30.750   4.607  22.499  1.00  0.00    -0.532 OA
ENDBRANCH  16  20
BRANCH  17  23
HETATM   23  N   LIG     1      27.151   2.998  24.443  1.00  0.00    -0.388 N 
HETATM   24  H   LIG     1      26.714   2.087  24.333  1.00  0.00     0.159 HD
BRANCH  23  25
HETATM   25  C   LIG     1      26.845   3.646  25.724  1.00  0.00     0.124 C 
BRANCH  25  26
HETATM   26  C   LIG     1      28.033   4.148  26.556  1.00  0.00     0.007 C 
HETATM   27  C   LIG     1      28.256   3.223  27.782  1.00  0.00     0.032 C 
HETATM   28  C   LIG     1      27.384   3.582  28.986  1.00  0.00     0.168 C 
HETATM   29  O   LIG     1      27.586   4.946  29.341  1.00  0.00    -0.391 OA
HETATM   30  C   LIG     1      27.146   5.819  28.304  1.00  0.00     0.168 C 
HETATM   31  C   LIG     1      27.958   5.602  27.032  1.00  0.00     0.032 C 
ENDBRANCH  25  26
ENDBRANCH  23  25
ENDBRANCH  17  23
ENDBRANCH  11  14
ENDBRANCH   9  11
ENDBRANCH   6   7
BRANCH   4  32
HETATM   32  O   LIG     1      27.061   9.710  22.786  1.00  0.00    -0.308 OA
BRANCH  32  33
HETATM   33  C   LIG     1      28.244   9.114  23.200  1.00  0.00     0.094 C 
HETATM   34  C   LIG     1      29.320   9.964  23.473  1.00  0.00     0.054 C 
HETATM   35  C   LIG     1      30.176   9.567  24.512  1.00  0.00     0.014 C 
HETATM   36  C   LIG     1      30.052   8.265  24.981  1.00  0.00     0.137 C 
HETATM   37  C   LIG     1      31.148  10.212  25.320  1.00  0.00     0.032 C 
HETATM   38  N   LIG     1      29.277   7.296  24.452  1.00  0.00    -0.240 NA
HETATM   39  N   LIG     1      30.797   8.164  26.128  1.00  0.00    -0.350 N 
HETATM   40  C   LIG     1      28.385   7.778  23.551  1.00  0.00     0.156 C 
HETATM   41  C   LIG     1      31.431   9.362  26.369  1.00  0.00     0.090 C 
HETATM   42  H   LIG     1      30.780   7.366  26.750  1.00  0.00     0.166 HD
ENDBRANCH  32  33
ENDBRANCH   4  32
BRANCH   1  43
HETATM   43  N   LIG     1      26.186  14.303  21.576  1.00  0.00    -0.377 N 
HETATM   44  C   LIG     1      25.440  14.402  22.851  1.00  0.00     0.153 C 
HETATM   45  C   LIG     1      25.309  15.841  23.402  1.00  0.00     0.292 C 
HETATM   46  N   LIG     1      26.568  16.626  23.376  1.00  0.00     0.095 N 
HETATM   47  C   LIG     1      26.893  16.751  21.943  1.00  0.00     0.292 C 
HETATM   48  C   LIG     1      27.110  15.414  21.228  1.00  0.00     0.153 C 
BRANCH  46  49
HETATM   49  C   LIG     1      27.635  15.943  24.155  1.00  0.00     0.307 C 
BRANCH  49  50
HETATM   50  C   LIG     1      27.684  16.325  25.628  1.00  0.00    -0.045 C 
HETATM   51  C   LIG     1      27.419  17.794  25.885  1.00  0.00     0.037 C 
HETATM   52  C   LIG     1      26.860  18.080  27.280  1.00  0.00     0.013 C 
HETATM   53  C   LIG     1      27.730  17.474  28.392  1.00  0.00    -0.043 C 
HETATM   54  C   LIG     1      27.993  15.965  28.116  1.00  0.00     0.048 C 
HETATM   55  C   LIG     1      29.060  18.250  28.506  1.00  0.00     0.015 C 
HETATM   56  C   LIG     1      26.991  17.631  29.739  1.00  0.00     0.015 C 
HETATM   57  C   LIG     1      27.894  15.481  26.668  1.00  0.00    -0.043 C 
BRANCH  57  58
HETATM   58  C   LIG     1      28.012  14.000  26.562  1.00  0.00    -0.029 C 
HETATM   59  C   LIG     1      28.647  13.244  27.559  1.00  0.00     0.013 C 
HETATM   60  C   LIG     1      28.542  11.848  27.582  1.00  0.00     0.024 C 
HETATM   61  C   LIG     1      27.757  11.208  26.629  1.00  0.00     0.034 C 
HETATM   62 CL   LIG     1      27.241   9.582  26.868  1.00  0.00    -0.084 Cl
HETATM   63  C   LIG     1      27.240  11.921  25.555  1.00  0.00     0.024 C 
HETATM   64  C   LIG     1      27.346  13.316  25.535  1.00  0.00     0.013 C 
ENDBRANCH  57  58
ENDBRANCH  49  50
ENDBRANCH  46  49
ENDBRANCH   1  43
TORSDOF 13
ENDMDL
MODEL 8
REMARK VINA RESULT:     -11.1      3.338      5.691
REMARK  13 active torsions:
REMARK  status: ('A' for Active; 'I' for Inactive)
REMARK    1  A    between atoms: S_2  and  N_13 
REMARK    2  A    between atoms: S_2  and  C_52 
REMARK    3  A    between atoms: O_4  and  C_45 
REMARK    4  A    between atoms: O_4  and  C_55 
REMARK    5  A    between atoms: N_10  and  C_23 
REMARK    6  A    between atoms: N_11  and  C_33 
REMARK    7  A    between atoms: N_12  and  C_42 
REMARK    8  A    between atoms: N_12  and  C_48 
REMARK       I    between atoms: N_13  and  C_49 
REMARK    9  A    between atoms: N_14  and  C_50 
REMARK   10  A    between atoms: C_21  and  C_23 
REMARK   11  A    between atoms: C_22  and  C_28 
REMARK   12  A    between atoms: C_36  and  C_42 
REMARK   13  A    between atoms: C_47  and  C_49 
ROOT
HETATM    1  C   LIG     1      29.780   7.907  21.045  1.00  0.00     0.033 C 
HETATM    2  C   LIG     1      29.165   6.647  20.895  1.00  0.00     0.067 C 
HETATM    3  C   LIG     1      30.791   7.973  22.009  1.00  0.00     0.030 C 
HETATM    4  C   LIG     1      29.561   5.502  21.633  1.00  0.00     0.094 C 
HETATM    5  C   LIG     1      31.232   6.854  22.703  1.00  0.00     0.022 C 
HETATM    6  C   LIG     1      30.708   5.581  22.445  1.00  0.00     0.067 C 
ENDROOT
BRANCH   6   7
HETATM    7  C   LIG     1      31.590   4.500  23.019  1.00  0.00     0.268 C 
HETATM    8  O   LIG     1      32.079   4.637  24.118  1.00  0.00    -0.267 OA
HETATM    9  N   LIG     1      31.838   3.389  22.227  1.00  0.00    -0.246 N 
HETATM   10  H   LIG     1      31.512   3.291  21.267  1.00  0.00     0.182 HD
BRANCH   9  11
HETATM   11  S   LIG     1      32.919   2.210  22.665  1.00  0.00     0.265 S 
HETATM   12  O   LIG     1      34.175   2.901  22.927  1.00  0.00    -0.200 OA
HETATM   13  O   LIG     1      32.335   1.374  23.674  1.00  0.00    -0.200 OA
BRANCH  11  14
HETATM   14  C   LIG     1      33.185   1.225  21.201  1.00  0.00     0.082 A 
HETATM   15  C   LIG     1      34.181   0.244  21.135  1.00  0.00     0.063 A 
HETATM   16  C   LIG     1      34.192  -0.710  20.064  1.00  0.00     0.130 A 
HETATM   17  C   LIG     1      33.140  -0.742  19.102  1.00  0.00     0.061 A 
HETATM   18  C   LIG     1      32.203   0.326  19.197  1.00  0.00     0.033 A 
HETATM   19  C   LIG     1      32.255   1.310  20.192  1.00  0.00     0.028 A 
BRANCH  16  20
HETATM   20  N   LIG     1      35.403  -1.620  20.098  1.00  0.00    -0.113 N 
HETATM   21  O   LIG     1      35.882  -1.953  21.171  1.00  0.00    -0.532 OA
HETATM   22  O   LIG     1      35.854  -1.966  19.018  1.00  0.00    -0.532 OA
ENDBRANCH  16  20
BRANCH  17  23
HETATM   23  N   LIG     1      32.902  -1.626  18.027  1.00  0.00    -0.388 N 
HETATM   24  H   LIG     1      33.590  -2.371  17.954  1.00  0.00     0.159 HD
BRANCH  23  25
HETATM   25  C   LIG     1      32.361  -1.196  16.732  1.00  0.00     0.124 C 
BRANCH  25  26
HETATM   26  C   LIG     1      33.374  -0.863  15.627  1.00  0.00     0.007 C 
HETATM   27  C   LIG     1      33.938   0.568  15.834  1.00  0.00     0.032 C 
HETATM   28  C   LIG     1      33.062   1.666  15.229  1.00  0.00     0.168 C 
HETATM   29  O   LIG     1      32.843   1.406  13.847  1.00  0.00    -0.391 OA
HETATM   30  C   LIG     1      32.098   0.205  13.660  1.00  0.00     0.168 C 
HETATM   31  C   LIG     1      32.871  -1.000  14.187  1.00  0.00     0.032 C 
ENDBRANCH  25  26
ENDBRANCH  23  25
ENDBRANCH  17  23
ENDBRANCH  11  14
ENDBRANCH   9  11
ENDBRANCH   6   7
BRANCH   4  32
HETATM   32  O   LIG     1      28.788   4.382  21.367  1.00  0.00    -0.308 OA
BRANCH  32  33
HETATM   33  C   LIG     1      27.896   3.918  22.323  1.00  0.00     0.094 C 
HETATM   34  C   LIG     1      28.440   3.258  23.429  1.00  0.00     0.054 C 
HETATM   35  C   LIG     1      27.770   3.440  24.650  1.00  0.00     0.014 C 
HETATM   36  C   LIG     1      26.504   4.010  24.607  1.00  0.00     0.137 C 
HETATM   37  C   LIG     1      28.099   3.254  26.018  1.00  0.00     0.032 C 
HETATM   38  N   LIG     1      25.793   4.293  23.496  1.00  0.00    -0.240 NA
HETATM   39  N   LIG     1      26.139   4.310  25.895  1.00  0.00    -0.350 N 
HETATM   40  C   LIG     1      26.543   4.224  22.368  1.00  0.00     0.156 C 
HETATM   41  C   LIG     1      27.128   3.897  26.758  1.00  0.00     0.090 C 
HETATM   42  H   LIG     1      25.323   4.855  26.144  1.00  0.00     0.166 HD
ENDBRANCH  32  33
ENDBRANCH   4  32
BRANCH   1  43
HETATM   43  N   LIG     1      29.432   9.041  20.271  1.00  0.00    -0.377 N 
HETATM   44  C   LIG     1      28.130   8.979  19.568  1.00  0.00     0.153 C 
HETATM   45  C   LIG     1      27.600  10.349  19.086  1.00  0.00     0.292 C 
HETATM   46  N   LIG     1      27.691  11.433  20.095  1.00  0.00     0.095 N 
HETATM   47  C   LIG     1      29.138  11.599  20.326  1.00  0.00     0.292 C 
HETATM   48  C   LIG     1      29.837  10.345  20.860  1.00  0.00     0.153 C 
BRANCH  46  49
HETATM   49  C   LIG     1      26.943  11.073  21.329  1.00  0.00     0.307 C 
BRANCH  49  50
HETATM   50  C   LIG     1      26.729  12.228  22.297  1.00  0.00    -0.045 C 
HETATM   51  C   LIG     1      26.267  13.506  21.627  1.00  0.00     0.037 C 
HETATM   52  C   LIG     1      25.478  14.432  22.554  1.00  0.00     0.013 C 
HETATM   53  C   LIG     1      26.233  14.735  23.858  1.00  0.00    -0.043 C 
HETATM   54  C   LIG     1      26.700  13.413  24.535  1.00  0.00     0.048 C 
HETATM   55  C   LIG     1      27.436  15.658  23.570  1.00  0.00     0.015 C 
HETATM   56  C   LIG     1      25.288  15.498  24.811  1.00  0.00     0.015 C 
HETATM   57  C   LIG     1      26.873  12.182  23.644  1.00  0.00    -0.043 C 
BRANCH  57  58
HETATM   58  C   LIG     1      27.169  10.955  24.435  1.00  0.00    -0.029 C 
HETATM   59  C   LIG     1      27.838   9.862  23.866  1.00  0.00     0.013 C 
HETATM   60  C   LIG     1      28.330   8.822  24.664  1.00  0.00     0.024 C 
HETATM   61  C   LIG     1      28.193   8.900  26.045  1.00  0.00     0.034 C 
HETATM   62 CL   LIG     1      29.146   7.902  27.077  1.00  0.00    -0.084 Cl
HETATM   63  C   LIG     1      27.412   9.897  26.615  1.00  0.00     0.024 C 
HETATM   64  C   LIG     1      26.923  10.935  25.816  1.00  0.00     0.013 C 
ENDBRANCH  57  58
ENDBRANCH  49  50
ENDBRANCH  46  49
ENDBRANCH   1  43
TORSDOF 13
ENDMDL
MODEL 9
REMARK VINA RESULT:     -11.0      4.382     12.736
REMARK  13 active torsions:
REMARK  status: ('A' for Active; 'I' for Inactive)
REMARK    1  A    between atoms: S_2  and  N_13 
REMARK    2  A    between atoms: S_2  and  C_52 
REMARK    3  A    between atoms: O_4  and  C_45 
REMARK    4  A    between atoms: O_4  and  C_55 
REMARK    5  A    between atoms: N_10  and  C_23 
REMARK    6  A    between atoms: N_11  and  C_33 
REMARK    7  A    between atoms: N_12  and  C_42 
REMARK    8  A    between atoms: N_12  and  C_48 
REMARK       I    between atoms: N_13  and  C_49 
REMARK    9  A    between atoms: N_14  and  C_50 
REMARK   10  A    between atoms: C_21  and  C_23 
REMARK   11  A    between atoms: C_22  and  C_28 
REMARK   12  A    between atoms: C_36  and  C_42 
REMARK   13  A    between atoms: C_47  and  C_49 
ROOT
HETATM    1  C   LIG     1      28.006   8.591  21.503  1.00  0.00     0.033 C 
HETATM    2  C   LIG     1      27.283   9.508  22.292  1.00  0.00     0.067 C 
HETATM    3  C   LIG     1      29.052   7.928  22.155  1.00  0.00     0.030 C 
HETATM    4  C   LIG     1      27.555   9.727  23.667  1.00  0.00     0.094 C 
HETATM    5  C   LIG     1      29.300   8.085  23.512  1.00  0.00     0.022 C 
HETATM    6  C   LIG     1      28.487   8.894  24.315  1.00  0.00     0.067 C 
ENDROOT
BRANCH   6   7
HETATM    7  C   LIG     1      28.704   8.606  25.779  1.00  0.00     0.268 C 
HETATM    8  O   LIG     1      29.825   8.426  26.201  1.00  0.00    -0.267 OA
HETATM    9  N   LIG     1      27.581   8.521  26.589  1.00  0.00    -0.246 N 
HETATM   10  H   LIG     1      26.625   8.580  26.243  1.00  0.00     0.182 HD
BRANCH   9  11
HETATM   11  S   LIG     1      27.665   8.046  28.176  1.00  0.00     0.265 S 
HETATM   12  O   LIG     1      26.327   7.586  28.525  1.00  0.00    -0.200 OA
HETATM   13  O   LIG     1      28.794   7.179  28.357  1.00  0.00    -0.200 OA
BRANCH  11  14
HETATM   14  C   LIG     1      27.944   9.537  29.116  1.00  0.00     0.082 A 
HETATM   15  C   LIG     1      28.550   9.519  30.377  1.00  0.00     0.063 A 
HETATM   16  C   LIG     1      29.008  10.737  30.981  1.00  0.00     0.130 A 
HETATM   17  C   LIG     1      28.946  11.973  30.273  1.00  0.00     0.061 A 
HETATM   18  C   LIG     1      28.256  11.921  29.028  1.00  0.00     0.033 A 
HETATM   19  C   LIG     1      27.728  10.742  28.489  1.00  0.00     0.028 A 
BRANCH  16  20
HETATM   20  N   LIG     1      29.535  10.536  32.388  1.00  0.00    -0.113 N 
HETATM   21  O   LIG     1      29.326  11.386  33.240  1.00  0.00    -0.532 OA
HETATM   22  O   LIG     1      30.171   9.515  32.591  1.00  0.00    -0.532 OA
ENDBRANCH  16  20
BRANCH  17  23
HETATM   23  N   LIG     1      29.401  13.262  30.628  1.00  0.00    -0.388 N 
HETATM   24  H   LIG     1      29.920  13.282  31.502  1.00  0.00     0.159 HD
BRANCH  23  25
HETATM   25  C   LIG     1      28.639  14.489  30.368  1.00  0.00     0.124 C 
BRANCH  25  26
HETATM   26  C   LIG     1      28.269  15.353  31.581  1.00  0.00     0.007 C 
HETATM   27  C   LIG     1      27.181  14.643  32.431  1.00  0.00     0.032 C 
HETATM   28  C   LIG     1      25.756  14.896  31.937  1.00  0.00     0.168 C 
HETATM   29  O   LIG     1      25.508  16.296  31.869  1.00  0.00    -0.391 OA
HETATM   30  C   LIG     1      26.343  16.921  30.897  1.00  0.00     0.168 C 
HETATM   31  C   LIG     1      27.814  16.783  31.278  1.00  0.00     0.032 C 
ENDBRANCH  25  26
ENDBRANCH  23  25
ENDBRANCH  17  23
ENDBRANCH  11  14
ENDBRANCH   9  11
ENDBRANCH   6   7
BRANCH   4  32
HETATM   32  O   LIG     1      26.759  10.709  24.235  1.00  0.00    -0.308 OA
BRANCH  32  33
HETATM   33  C   LIG     1      27.110  12.044  24.098  1.00  0.00     0.094 C 
HETATM   34  C   LIG     1      26.100  12.928  23.705  1.00  0.00     0.054 C 
HETATM   35  C   LIG     1      26.167  14.223  24.243  1.00  0.00     0.014 C 
HETATM   36  C   LIG     1      27.347  14.594  24.875  1.00  0.00     0.137 C 
HETATM   37  C   LIG     1      25.256  15.302  24.390  1.00  0.00     0.032 C 
HETATM   38  N   LIG     1      28.490  13.880  24.916  1.00  0.00    -0.240 NA
HETATM   39  N   LIG     1      27.116  15.782  25.521  1.00  0.00    -0.350 N 
HETATM   40  C   LIG     1      28.316  12.598  24.505  1.00  0.00     0.156 C 
HETATM   41  C   LIG     1      25.828  16.197  25.270  1.00  0.00     0.090 C 
HETATM   42  H   LIG     1      27.763  16.213  26.170  1.00  0.00     0.166 HD
ENDBRANCH  32  33
ENDBRANCH   4  32
BRANCH   1  43
HETATM   43  N   LIG     1      27.704   8.322  20.144  1.00  0.00    -0.377 N 
HETATM   44  C   LIG     1      28.861   8.213  19.227  1.00  0.00     0.153 C 
HETATM   45  C   LIG     1      28.542   7.528  17.878  1.00  0.00     0.292 C 
HETATM   46  N   LIG     1      27.744   6.282  17.995  1.00  0.00     0.095 N 
HETATM   47  C   LIG     1      26.455   6.725  18.558  1.00  0.00     0.292 C 
HETATM   48  C   LIG     1      26.565   7.391  19.933  1.00  0.00     0.153 C 
BRANCH  46  49
HETATM   49  C   LIG     1      28.440   5.285  18.851  1.00  0.00     0.307 C 
BRANCH  49  50
HETATM   50  C   LIG     1      28.010   3.843  18.618  1.00  0.00    -0.045 C 
HETATM   51  C   LIG     1      28.169   3.385  17.182  1.00  0.00     0.037 C 
HETATM   52  C   LIG     1      28.349   1.873  17.039  1.00  0.00     0.013 C 
HETATM   53  C   LIG     1      27.239   1.083  17.749  1.00  0.00    -0.043 C 
HETATM   54  C   LIG     1      27.088   1.563  19.223  1.00  0.00     0.048 C 
HETATM   55  C   LIG     1      25.907   1.237  16.984  1.00  0.00     0.015 C 
HETATM   56  C   LIG     1      27.608  -0.416  17.730  1.00  0.00     0.015 C 
HETATM   57  C   LIG     1      27.561   2.978  19.560  1.00  0.00    -0.043 C 
BRANCH  57  58
HETATM   58  C   LIG     1      27.506   3.254  21.023  1.00  0.00    -0.029 C 
HETATM   59  C   LIG     1      28.502   2.787  21.893  1.00  0.00     0.013 C 
HETATM   60  C   LIG     1      28.583   3.250  23.212  1.00  0.00     0.024 C 
HETATM   61  C   LIG     1      27.689   4.222  23.649  1.00  0.00     0.034 C 
HETATM   62 CL   LIG     1      28.012   5.129  25.077  1.00  0.00    -0.084 Cl
HETATM   63  C   LIG     1      26.612   4.590  22.852  1.00  0.00     0.024 C 
HETATM   64  C   LIG     1      26.535   4.127  21.534  1.00  0.00     0.013 C 
ENDBRANCH  57  58
ENDBRANCH  49  50
ENDBRANCH  46  49
ENDBRANCH   1  43
TORSDOF 13
ENDMDL
