REMARK  13 active torsions:
REMARK  status: ('A' for Active; 'I' for Inactive)
REMARK    1  A    between atoms: S_2  and  N_13 
REMARK    2  A    between atoms: S_2  and  C_52 
REMARK    3  A    between atoms: O_4  and  C_45 
REMARK    4  A    between atoms: O_4  and  C_55 
REMARK    5  A    between atoms: N_10  and  C_23 
REMARK    6  A    between atoms: N_11  and  C_33 
REMARK    7  A    between atoms: N_12  and  C_42 
REMARK    8  A    between atoms: N_12  and  C_48 
REMARK       I    between atoms: N_13  and  C_49 
REMARK    9  A    between atoms: N_14  and  C_50 
REMARK   10  A    between atoms: C_21  and  C_23 
REMARK   11  A    between atoms: C_22  and  C_28 
REMARK   12  A    between atoms: C_36  and  C_42 
REMARK   13  A    between atoms: C_47  and  C_49 
ROOT
HETATM    1  C   LIG     1       1.691  -3.657   1.026  1.00  0.00     0.033 C 
HETATM    2  C   LIG     1       0.429  -4.138   0.623  1.00  0.00     0.067 C 
HETATM    3  C   LIG     1       1.692  -2.387   1.613  1.00  0.00     0.030 C 
HETATM    4  C   LIG     1      -0.775  -3.416   0.828  1.00  0.00     0.094 C 
HETATM    5  C   LIG     1       0.522  -1.687   1.874  1.00  0.00     0.022 C 
HETATM    6  C   LIG     1      -0.736  -2.236   1.595  1.00  0.00     0.067 C 
ENDROOT
BRANCH   6   7
HETATM    7  C   LIG     1      -1.832  -1.482   2.305  1.00  0.00     0.268 C 
HETATM    8  O   LIG     1      -1.555  -0.693   3.181  1.00  0.00    -0.267 OA
HETATM    9  N   LIG     1      -3.141  -1.761   1.941  1.00  0.00    -0.246 N 
HETATM   10  H   LIG     1      -3.403  -2.483   1.272  1.00  0.00     0.182 HD
BRANCH   9  11
HETATM   11  S   LIG     1      -4.442  -1.131   2.754  1.00  0.00     0.265 S 
HETATM   12  O   LIG     1      -5.623  -1.621   2.055  1.00  0.00    -0.200 OA
HETATM   13  O   LIG     1      -4.289  -1.369   4.161  1.00  0.00    -0.200 OA
BRANCH  11  14
HETATM   14  C   LIG     1      -4.387   0.630   2.471  1.00  0.00     0.082 A 
HETATM   15  C   LIG     1      -4.901   1.213   1.308  1.00  0.00     0.063 A 
HETATM   16  C   LIG     1      -5.094   2.632   1.230  1.00  0.00     0.130 A 
HETATM   17  C   LIG     1      -4.860   3.466   2.363  1.00  0.00     0.061 A 
HETATM   18  C   LIG     1      -4.276   2.810   3.484  1.00  0.00     0.033 A 
HETATM   19  C   LIG     1      -4.003   1.437   3.517  1.00  0.00     0.028 A 
BRANCH  16  20
HETATM   20  N   LIG     1      -5.552   3.091  -0.140  1.00  0.00    -0.113 N 
HETATM   21  O   LIG     1      -5.783   4.274  -0.337  1.00  0.00    -0.532 OA
HETATM   22  O   LIG     1      -5.684   2.225  -0.989  1.00  0.00    -0.532 OA
ENDBRANCH  16  20
BRANCH  17  23
HETATM   23  N   LIG     1      -5.054   4.853   2.542  1.00  0.00    -0.388 N 
HETATM   24  H   LIG     1      -4.949   5.156   3.507  1.00  0.00     0.159 HD
BRANCH  23  25
HETATM   25  C   LIG     1      -6.035   5.637   1.783  1.00  0.00     0.124 C 
BRANCH  25  26
HETATM   26  C   LIG     1      -6.640   6.864   2.480  1.00  0.00     0.007 C 
HETATM   27  C   LIG     1      -7.584   7.620   1.507  1.00  0.00     0.032 C 
HETATM   28  C   LIG     1      -6.859   8.613   0.598  1.00  0.00     0.168 C 
HETATM   29  O   LIG     1      -6.107   9.531   1.385  1.00  0.00    -0.391 OA
HETATM   30  C   LIG     1      -5.066   8.867   2.097  1.00  0.00     0.168 C 
HETATM   31  C   LIG     1      -5.643   7.857   3.084  1.00  0.00     0.032 C 
ENDBRANCH  25  26
ENDBRANCH  23  25
ENDBRANCH  17  23
ENDBRANCH  11  14
ENDBRANCH   9  11
ENDBRANCH   6   7
BRANCH   4  32
HETATM   32  O   LIG     1      -1.892  -4.050   0.307  1.00  0.00    -0.308 OA
BRANCH  32  33
HETATM   33  C   LIG     1      -2.581  -3.473  -0.750  1.00  0.00     0.094 C 
HETATM   34  C   LIG     1      -3.789  -4.071  -1.121  1.00  0.00     0.054 C 
HETATM   35  C   LIG     1      -4.793  -3.205  -1.583  1.00  0.00     0.014 C 
HETATM   36  C   LIG     1      -4.423  -1.902  -1.891  1.00  0.00     0.137 C 
HETATM   37  C   LIG     1      -6.199  -3.293  -1.755  1.00  0.00     0.032 C 
HETATM   38  N   LIG     1      -3.166  -1.413  -1.915  1.00  0.00    -0.240 NA
HETATM   39  N   LIG     1      -5.572  -1.179  -2.088  1.00  0.00    -0.350 N 
HETATM   40  C   LIG     1      -2.272  -2.251  -1.332  1.00  0.00     0.156 C 
HETATM   41  C   LIG     1      -6.662  -2.009  -1.959  1.00  0.00     0.090 C 
HETATM   42  H   LIG     1      -5.601  -0.173  -2.194  1.00  0.00     0.166 HD
ENDBRANCH  32  33
ENDBRANCH   4  32
BRANCH   1  43
HETATM   43  N   LIG     1       2.891  -4.396   0.879  1.00  0.00    -0.377 N 
HETATM   44  C   LIG     1       2.917  -5.387  -0.221  1.00  0.00     0.153 C 
HETATM   45  C   LIG     1       4.334  -5.867  -0.612  1.00  0.00     0.292 C 
HETATM   46  N   LIG     1       5.334  -4.780  -0.754  1.00  0.00     0.095 N 
HETATM   47  C   LIG     1       5.443  -4.203   0.599  1.00  0.00     0.292 C 
HETATM   48  C   LIG     1       4.134  -3.624   1.143  1.00  0.00     0.153 C 
BRANCH  46  49
HETATM   49  C   LIG     1       4.899  -3.789  -1.774  1.00  0.00     0.307 C 
BRANCH  49  50
HETATM   50  C   LIG     1       5.908  -2.683  -2.051  1.00  0.00    -0.045 C 
HETATM   51  C   LIG     1       7.243  -3.190  -2.558  1.00  0.00     0.037 C 
HETATM   52  C   LIG     1       8.007  -2.166  -3.399  1.00  0.00     0.013 C 
HETATM   53  C   LIG     1       8.167  -0.820  -2.676  1.00  0.00    -0.043 C 
HETATM   54  C   LIG     1       6.788  -0.311  -2.162  1.00  0.00     0.048 C 
HETATM   55  C   LIG     1       9.168  -0.962  -1.509  1.00  0.00     0.015 C 
HETATM   56  C   LIG     1       8.760   0.206  -3.666  1.00  0.00     0.015 C 
HETATM   57  C   LIG     1       5.692  -1.351  -1.924  1.00  0.00    -0.043 C 
BRANCH  57  58
HETATM   58  C   LIG     1       4.385  -0.721  -1.587  1.00  0.00    -0.029 C 
HETATM   59  C   LIG     1       4.070  -0.349  -0.272  1.00  0.00     0.013 C 
HETATM   60  C   LIG     1       2.959   0.458   0.003  1.00  0.00     0.024 C 
HETATM   61  C   LIG     1       2.186   0.935  -1.050  1.00  0.00     0.034 C 
HETATM   62 CL   LIG     1       1.108   2.257  -0.815  1.00  0.00    -0.084 Cl
HETATM   63  C   LIG     1       2.395   0.464  -2.340  1.00  0.00     0.024 C 
HETATM   64  C   LIG     1       3.506  -0.341  -2.612  1.00  0.00     0.013 C 
ENDBRANCH  57  58
ENDBRANCH  49  50
ENDBRANCH  46  49
ENDBRANCH   1  43
TORSDOF 13
