REMARK  7 active torsions:
REMARK  status: ('A' for Active; 'I' for Inactive)
REMARK    1  A    between atoms: C_4  and  C_25 
REMARK    2  A    between atoms: C_5  and  N_8 
REMARK    3  A    between atoms: N_8  and  C_10 
REMARK    4  A    between atoms: C_13  and  C_16 
REMARK    5  A    between atoms: C_16  and  N_17 
REMARK    6  A    between atoms: N_20  and  C_23 
REMARK    7  A    between atoms: N_28  and  C_36 
ROOT
HETATM    1  F   LIG     1      -5.891   4.679  -0.345  1.00  0.00    -0.201 F 
HETATM    2  N   LIG     1      -2.511   3.419  -0.536  1.00  0.00    -0.059 NA
HETATM    3  N   LIG     1      -2.472   5.779  -0.487  1.00  0.00    -0.057 NA
HETATM    4  C   LIG     1      -3.861   3.397  -0.480  1.00  0.00     0.129 A 
HETATM    5  C   LIG     1      -1.843   4.592  -0.529  1.00  0.00     0.729 A 
HETATM    6  C   LIG     1      -4.562   4.591  -0.414  1.00  0.00     0.178 A 
HETATM    7  C   LIG     1      -3.816   5.747  -0.418  1.00  0.00     0.149 A 
ENDROOT
BRANCH   5   8
HETATM    8  N   LIG     1      -0.459   4.601  -0.572  1.00  0.00    -0.170 N 
HETATM    9  H   LIG     1      -0.079   5.465  -0.932  1.00  0.00     0.186 HD
BRANCH   8  10
HETATM   10  C   LIG     1       0.431   3.532  -0.610  1.00  0.00     0.156 A 
HETATM   11  C   LIG     1       0.100   2.285  -0.088  1.00  0.00     0.037 A 
HETATM   12  C   LIG     1       0.971   1.213  -0.220  1.00  0.00     0.002 A 
HETATM   13  C   LIG     1       2.202   1.409  -0.832  1.00  0.00     0.030 A 
HETATM   14  C   LIG     1       2.491   2.695  -1.271  1.00  0.00     0.098 A 
HETATM   15  N   LIG     1       1.639   3.749  -1.172  1.00  0.00    -0.227 NA
BRANCH  13  16
HETATM   16  C   LIG     1       3.162   0.260  -0.985  1.00  0.00     0.278 C 
BRANCH  16  17
HETATM   17  N   LIG     1       4.438   0.433  -0.271  1.00  0.00     0.146 N 
HETATM   18  C   LIG     1       5.302  -0.753  -0.480  1.00  0.00     0.286 C 
HETATM   19  C   LIG     1       4.850  -2.024   0.285  1.00  0.00     0.285 C 
HETATM   20  N   LIG     1       4.635  -1.844   1.736  1.00  0.00     0.141 N 
HETATM   21  C   LIG     1       3.796  -0.640   1.952  1.00  0.00     0.285 C 
HETATM   22  C   LIG     1       4.269   0.622   1.187  1.00  0.00     0.286 C 
BRANCH  20  23
HETATM   23  C   LIG     1       5.887  -1.741   2.506  1.00  0.00     0.251 C 
HETATM   24  C   LIG     1       6.778  -2.977   2.420  1.00  0.00     0.037 C 
ENDBRANCH  20  23
ENDBRANCH  16  17
ENDBRANCH  13  16
ENDBRANCH   8  10
ENDBRANCH   5   8
BRANCH   4  25
HETATM   25  C   LIG     1      -4.471   2.026  -0.472  1.00  0.00     0.024 A 
HETATM   26  C   LIG     1      -5.860   1.847  -0.376  1.00  0.00     0.033 A 
HETATM   27  C   LIG     1      -6.445   0.579  -0.358  1.00  0.00     0.159 A 
HETATM   28  C   LIG     1      -5.643  -0.564  -0.440  1.00  0.00     0.126 A 
HETATM   29  F   LIG     1      -7.778   0.484  -0.259  1.00  0.00    -0.203 F 
HETATM   30  C   LIG     1      -4.264  -0.422  -0.545  1.00  0.00     0.081 A 
HETATM   31  N   LIG     1      -6.001  -1.880  -0.429  1.00  0.00    -0.229 NA
HETATM   32  N   LIG     1      -3.786  -1.728  -0.619  1.00  0.00    -0.317 N 
HETATM   33  C   LIG     1      -3.661   0.859  -0.559  1.00  0.00     0.021 A 
HETATM   34  C   LIG     1      -4.884  -2.568  -0.518  1.00  0.00     0.121 A 
HETATM   35  C   LIG     1      -4.865  -4.052  -0.510  1.00  0.00     0.072 C 
BRANCH  32  36
HETATM   36  C   LIG     1      -2.379  -2.097  -0.797  1.00  0.00     0.087 C 
HETATM   37  C   LIG     1      -2.132  -3.291  -1.728  1.00  0.00     0.025 C 
HETATM   38  C   LIG     1      -1.660  -2.328   0.534  1.00  0.00     0.025 C 
ENDBRANCH  32  36
ENDBRANCH   4  25
TORSDOF 7
