MODEL 1
REMARK VINA RESULT:      -9.5      0.000      0.000
REMARK  7 active torsions:
REMARK  status: ('A' for Active; 'I' for Inactive)
REMARK    1  A    between atoms: C_4  and  C_25 
REMARK    2  A    between atoms: C_5  and  N_8 
REMARK    3  A    between atoms: N_8  and  C_10 
REMARK    4  A    between atoms: C_13  and  C_16 
REMARK    5  A    between atoms: C_16  and  N_17 
REMARK    6  A    between atoms: N_20  and  C_23 
REMARK    7  A    between atoms: N_28  and  C_36 
ROOT
HETATM    1  F   LIG     1      61.056  -0.067  82.303  1.00  0.00    -0.201 F 
HETATM    2  N   LIG     1      63.492  -1.571  80.101  1.00  0.00    -0.059 NA
HETATM    3  N   LIG     1      63.731   0.777  80.056  1.00  0.00    -0.057 NA
HETATM    4  C   LIG     1      62.467  -1.494  80.978  1.00  0.00     0.129 A 
HETATM    5  C   LIG     1      64.108  -0.452  79.665  1.00  0.00     0.729 A 
HETATM    6  C   LIG     1      62.048  -0.253  81.432  1.00  0.00     0.178 A 
HETATM    7  C   LIG     1      62.718   0.844  80.939  1.00  0.00     0.149 A 
ENDROOT
BRANCH   5   8
HETATM    8  N   LIG     1      65.167  -0.546  78.777  1.00  0.00    -0.170 N 
HETATM    9  H   LIG     1      66.043  -0.773  79.227  1.00  0.00     0.186 HD
BRANCH   8  10
HETATM   10  C   LIG     1      65.310   0.010  77.510  1.00  0.00     0.156 A 
HETATM   11  C   LIG     1      64.364  -0.196  76.509  1.00  0.00     0.037 A 
HETATM   12  C   LIG     1      64.485   0.443  75.284  1.00  0.00     0.002 A 
HETATM   13  C   LIG     1      65.589   1.250  75.045  1.00  0.00     0.030 A 
HETATM   14  C   LIG     1      66.525   1.358  76.065  1.00  0.00     0.098 A 
HETATM   15  N   LIG     1      66.409   0.759  77.280  1.00  0.00    -0.227 NA
BRANCH  13  16
HETATM   16  C   LIG     1      65.740   1.952  73.722  1.00  0.00     0.278 C 
BRANCH  16  17
HETATM   17  N   LIG     1      65.210   3.326  73.697  1.00  0.00     0.146 N 
HETATM   18  C   LIG     1      64.498   3.573  72.421  1.00  0.00     0.286 C 
HETATM   19  C   LIG     1      65.422   3.725  71.185  1.00  0.00     0.285 C 
HETATM   20  N   LIG     1      66.504   4.722  71.325  1.00  0.00     0.141 N 
HETATM   21  C   LIG     1      67.200   4.498  72.615  1.00  0.00     0.285 C 
HETATM   22  C   LIG     1      66.261   4.358  73.840  1.00  0.00     0.286 C 
BRANCH  20  23
HETATM   23  C   LIG     1      66.033   6.115  71.231  1.00  0.00     0.251 C 
HETATM   24  C   LIG     1      66.994   7.141  71.826  1.00  0.00     0.037 C 
ENDBRANCH  20  23
ENDBRANCH  16  17
ENDBRANCH  13  16
ENDBRANCH   8  10
ENDBRANCH   5   8
BRANCH   4  25
HETATM   25  C   LIG     1      61.890  -2.815  81.394  1.00  0.00     0.024 A 
HETATM   26  C   LIG     1      60.604  -2.906  81.950  1.00  0.00     0.033 A 
HETATM   27  C   LIG     1      60.054  -4.125  82.352  1.00  0.00     0.159 A 
HETATM   28  C   LIG     1      60.787  -5.307  82.204  1.00  0.00     0.126 A 
HETATM   29  F   LIG     1      58.822  -4.136  82.879  1.00  0.00    -0.203 F 
HETATM   30  C   LIG     1      62.061  -5.253  81.649  1.00  0.00     0.081 A 
HETATM   31  N   LIG     1      60.451  -6.586  82.536  1.00  0.00    -0.229 NA
HETATM   32  N   LIG     1      62.490  -6.578  81.637  1.00  0.00    -0.317 N 
HETATM   33  C   LIG     1      62.629  -4.022  81.243  1.00  0.00     0.021 A 
HETATM   34  C   LIG     1      61.480  -7.336  82.210  1.00  0.00     0.121 A 
HETATM   35  C   LIG     1      61.500  -8.801  82.447  1.00  0.00     0.072 C 
BRANCH  32  36
HETATM   36  C   LIG     1      63.766  -7.042  81.086  1.00  0.00     0.087 C 
HETATM   37  C   LIG     1      65.014  -6.409  81.715  1.00  0.00     0.025 C 
HETATM   38  C   LIG     1      63.833  -6.903  79.563  1.00  0.00     0.025 C 
ENDBRANCH  32  36
ENDBRANCH   4  25
TORSDOF 7
ENDMDL
MODEL 2
REMARK VINA RESULT:      -9.4     28.207     29.795
REMARK  7 active torsions:
REMARK  status: ('A' for Active; 'I' for Inactive)
REMARK    1  A    between atoms: C_4  and  C_25 
REMARK    2  A    between atoms: C_5  and  N_8 
REMARK    3  A    between atoms: N_8  and  C_10 
REMARK    4  A    between atoms: C_13  and  C_16 
REMARK    5  A    between atoms: C_16  and  N_17 
REMARK    6  A    between atoms: N_20  and  C_23 
REMARK    7  A    between atoms: N_28  and  C_36 
ROOT
HETATM    1  F   LIG     1      54.814 -15.845  55.349  1.00  0.00    -0.201 F 
HETATM    2  N   LIG     1      52.348 -13.686  56.868  1.00  0.00    -0.059 NA
HETATM    3  N   LIG     1      54.393 -12.524  56.659  1.00  0.00    -0.057 NA
HETATM    4  C   LIG     1      52.876 -14.802  56.320  1.00  0.00     0.129 A 
HETATM    5  C   LIG     1      53.099 -12.574  57.020  1.00  0.00     0.729 A 
HETATM    6  C   LIG     1      54.201 -14.802  55.910  1.00  0.00     0.178 A 
HETATM    7  C   LIG     1      54.907 -13.636  56.102  1.00  0.00     0.149 A 
ENDROOT
BRANCH   5   8
HETATM    8  N   LIG     1      52.542 -11.432  57.569  1.00  0.00    -0.170 N 
HETATM    9  H   LIG     1      52.886 -11.230  58.497  1.00  0.00     0.186 HD
BRANCH   8  10
HETATM   10  C   LIG     1      51.344 -10.795  57.259  1.00  0.00     0.156 A 
HETATM   11  C   LIG     1      50.962 -10.556  55.943  1.00  0.00     0.037 A 
HETATM   12  C   LIG     1      49.722 -10.002  55.659  1.00  0.00     0.002 A 
HETATM   13  C   LIG     1      48.885  -9.637  56.706  1.00  0.00     0.030 A 
HETATM   14  C   LIG     1      49.360  -9.846  57.995  1.00  0.00     0.098 A 
HETATM   15  N   LIG     1      50.560 -10.411  58.289  1.00  0.00    -0.227 NA
BRANCH  13  16
HETATM   16  C   LIG     1      47.536  -9.033  56.421  1.00  0.00     0.278 C 
BRANCH  16  17
HETATM   17  N   LIG     1      46.899  -9.520  55.186  1.00  0.00     0.146 N 
HETATM   18  C   LIG     1      45.631  -8.791  54.947  1.00  0.00     0.286 C 
HETATM   19  C   LIG     1      44.472  -9.181  55.901  1.00  0.00     0.285 C 
HETATM   20  N   LIG     1      44.180 -10.627  55.980  1.00  0.00     0.141 N 
HETATM   21  C   LIG     1      45.450 -11.364  56.189  1.00  0.00     0.285 C 
HETATM   22  C   LIG     1      46.593 -10.968  55.220  1.00  0.00     0.286 C 
BRANCH  20  23
HETATM   23  C   LIG     1      43.474 -11.148  54.797  1.00  0.00     0.251 C 
HETATM   24  C   LIG     1      42.813 -12.507  55.010  1.00  0.00     0.037 C 
ENDBRANCH  20  23
ENDBRANCH  16  17
ENDBRANCH  13  16
ENDBRANCH   8  10
ENDBRANCH   5   8
BRANCH   4  25
HETATM   25  C   LIG     1      51.924 -15.954  56.191  1.00  0.00     0.024 A 
HETATM   26  C   LIG     1      50.577 -15.752  55.852  1.00  0.00     0.033 A 
HETATM   27  C   LIG     1      49.674 -16.811  55.736  1.00  0.00     0.159 A 
HETATM   28  C   LIG     1      50.102 -18.124  55.957  1.00  0.00     0.126 A 
HETATM   29  F   LIG     1      48.401 -16.542  55.415  1.00  0.00    -0.203 F 
HETATM   30  C   LIG     1      51.432 -18.361  56.285  1.00  0.00     0.081 A 
HETATM   31  N   LIG     1      49.394 -19.289  55.907  1.00  0.00    -0.229 NA
HETATM   32  N   LIG     1      51.515 -19.745  56.417  1.00  0.00    -0.317 N 
HETATM   33  C   LIG     1      52.354 -17.293  56.410  1.00  0.00     0.021 A 
HETATM   34  C   LIG     1      50.243 -20.250  56.202  1.00  0.00     0.121 A 
HETATM   35  C   LIG     1      49.832 -21.674  56.275  1.00  0.00     0.072 C 
BRANCH  32  36
HETATM   36  C   LIG     1      52.746 -20.487  56.706  1.00  0.00     0.087 C 
HETATM   37  C   LIG     1      53.127 -20.563  58.190  1.00  0.00     0.025 C 
HETATM   38  C   LIG     1      53.940 -19.980  55.895  1.00  0.00     0.025 C 
ENDBRANCH  32  36
ENDBRANCH   4  25
TORSDOF 7
ENDMDL
MODEL 3
REMARK VINA RESULT:      -9.4     24.724     28.004
REMARK  7 active torsions:
REMARK  status: ('A' for Active; 'I' for Inactive)
REMARK    1  A    between atoms: C_4  and  C_25 
REMARK    2  A    between atoms: C_5  and  N_8 
REMARK    3  A    between atoms: N_8  and  C_10 
REMARK    4  A    between atoms: C_13  and  C_16 
REMARK    5  A    between atoms: C_16  and  N_17 
REMARK    6  A    between atoms: N_20  and  C_23 
REMARK    7  A    between atoms: N_28  and  C_36 
ROOT
HETATM    1  F   LIG     1      58.379  -8.548  58.893  1.00  0.00    -0.201 F 
HETATM    2  N   LIG     1      56.108 -10.228  56.641  1.00  0.00    -0.059 NA
HETATM    3  N   LIG     1      55.659 -10.898  58.860  1.00  0.00    -0.057 NA
HETATM    4  C   LIG     1      57.114  -9.420  57.043  1.00  0.00     0.129 A 
HETATM    5  C   LIG     1      55.397 -10.939  57.543  1.00  0.00     0.729 A 
HETATM    6  C   LIG     1      57.415  -9.322  58.392  1.00  0.00     0.178 A 
HETATM    7  C   LIG     1      56.654 -10.080  59.252  1.00  0.00     0.149 A 
ENDROOT
BRANCH   5   8
HETATM    8  N   LIG     1      54.359 -11.752  57.120  1.00  0.00    -0.170 N 
HETATM    9  H   LIG     1      54.673 -12.644  56.766  1.00  0.00     0.186 HD
BRANCH   8  10
HETATM   10  C   LIG     1      53.072 -11.407  56.722  1.00  0.00     0.156 A 
HETATM   11  C   LIG     1      51.969 -11.616  57.545  1.00  0.00     0.037 A 
HETATM   12  C   LIG     1      50.710 -11.180  57.160  1.00  0.00     0.002 A 
HETATM   13  C   LIG     1      50.549 -10.578  55.919  1.00  0.00     0.030 A 
HETATM   14  C   LIG     1      51.682 -10.460  55.123  1.00  0.00     0.098 A 
HETATM   15  N   LIG     1      52.926 -10.860  55.496  1.00  0.00    -0.227 NA
BRANCH  13  16
HETATM   16  C   LIG     1      49.192 -10.098  55.481  1.00  0.00     0.278 C 
BRANCH  16  17
HETATM   17  N   LIG     1      48.106 -10.394  56.430  1.00  0.00     0.146 N 
HETATM   18  C   LIG     1      47.191 -11.409  55.855  1.00  0.00     0.286 C 
HETATM   19  C   LIG     1      46.282 -10.885  54.713  1.00  0.00     0.285 C 
HETATM   20  N   LIG     1      45.501  -9.672  55.034  1.00  0.00     0.141 N 
HETATM   21  C   LIG     1      46.407  -8.664  55.639  1.00  0.00     0.285 C 
HETATM   22  C   LIG     1      47.300  -9.204  56.784  1.00  0.00     0.286 C 
BRANCH  20  23
HETATM   23  C   LIG     1      44.355  -9.930  55.923  1.00  0.00     0.251 C 
HETATM   24  C   LIG     1      43.574 -11.197  55.586  1.00  0.00     0.037 C 
ENDBRANCH  20  23
ENDBRANCH  16  17
ENDBRANCH  13  16
ENDBRANCH   8  10
ENDBRANCH   5   8
BRANCH   4  25
HETATM   25  C   LIG     1      57.803  -8.673  55.939  1.00  0.00     0.024 A 
HETATM   26  C   LIG     1      57.897  -7.273  55.955  1.00  0.00     0.033 A 
HETATM   27  C   LIG     1      58.527  -6.560  54.933  1.00  0.00     0.159 A 
HETATM   28  C   LIG     1      59.092  -7.240  53.849  1.00  0.00     0.126 A 
HETATM   29  F   LIG     1      58.575  -5.223  55.012  1.00  0.00    -0.203 F 
HETATM   30  C   LIG     1      59.024  -8.628  53.806  1.00  0.00     0.081 A 
HETATM   31  N   LIG     1      59.736  -6.747  52.752  1.00  0.00    -0.229 NA
HETATM   32  N   LIG     1      59.681  -8.971  52.627  1.00  0.00    -0.317 N 
HETATM   33  C   LIG     1      58.383  -9.360  54.836  1.00  0.00     0.021 A 
HETATM   34  C   LIG     1      60.068  -7.787  52.020  1.00  0.00     0.121 A 
HETATM   35  C   LIG     1      60.769  -7.648  50.719  1.00  0.00     0.072 C 
BRANCH  32  36
HETATM   36  C   LIG     1      59.920 -10.342  52.169  1.00  0.00     0.087 C 
HETATM   37  C   LIG     1      58.726 -11.295  52.316  1.00  0.00     0.025 C 
HETATM   38  C   LIG     1      61.158 -10.969  52.813  1.00  0.00     0.025 C 
ENDBRANCH  32  36
ENDBRANCH   4  25
TORSDOF 7
ENDMDL
MODEL 4
REMARK VINA RESULT:      -9.3     26.075     27.675
REMARK  7 active torsions:
REMARK  status: ('A' for Active; 'I' for Inactive)
REMARK    1  A    between atoms: C_4  and  C_25 
REMARK    2  A    between atoms: C_5  and  N_8 
REMARK    3  A    between atoms: N_8  and  C_10 
REMARK    4  A    between atoms: C_13  and  C_16 
REMARK    5  A    between atoms: C_16  and  N_17 
REMARK    6  A    between atoms: N_20  and  C_23 
REMARK    7  A    between atoms: N_28  and  C_36 
ROOT
HETATM    1  F   LIG     1      48.140 -12.265  54.558  1.00  0.00    -0.201 F 
HETATM    2  N   LIG     1      51.138 -12.868  56.480  1.00  0.00    -0.059 NA
HETATM    3  N   LIG     1      50.983 -10.571  55.959  1.00  0.00    -0.057 NA
HETATM    4  C   LIG     1      49.987 -13.138  55.825  1.00  0.00     0.129 A 
HETATM    5  C   LIG     1      51.609 -11.605  56.546  1.00  0.00     0.729 A 
HETATM    6  C   LIG     1      49.288 -12.107  55.218  1.00  0.00     0.178 A 
HETATM    7  C   LIG     1      49.831 -10.847  55.320  1.00  0.00     0.149 A 
ENDROOT
BRANCH   5   8
HETATM    8  N   LIG     1      52.782 -11.338  57.233  1.00  0.00    -0.170 N 
HETATM    9  H   LIG     1      52.629 -11.109  58.205  1.00  0.00     0.186 HD
BRANCH   8  10
HETATM   10  C   LIG     1      54.019 -10.932  56.744  1.00  0.00     0.156 A 
HETATM   11  C   LIG     1      54.215 -10.642  55.397  1.00  0.00     0.037 A 
HETATM   12  C   LIG     1      55.435 -10.153  54.952  1.00  0.00     0.002 A 
HETATM   13  C   LIG     1      56.478 -10.006  55.856  1.00  0.00     0.030 A 
HETATM   14  C   LIG     1      56.231 -10.376  57.172  1.00  0.00     0.098 A 
HETATM   15  N   LIG     1      55.035 -10.833  57.628  1.00  0.00    -0.227 NA
BRANCH  13  16
HETATM   16  C   LIG     1      57.810  -9.478  55.394  1.00  0.00     0.278 C 
BRANCH  16  17
HETATM   17  N   LIG     1      57.816  -8.042  55.067  1.00  0.00     0.146 N 
HETATM   18  C   LIG     1      59.187  -7.608  54.709  1.00  0.00     0.286 C 
HETATM   19  C   LIG     1      60.167  -7.513  55.907  1.00  0.00     0.285 C 
HETATM   20  N   LIG     1      59.694  -6.699  57.046  1.00  0.00     0.141 N 
HETATM   21  C   LIG     1      58.310  -7.109  57.388  1.00  0.00     0.285 C 
HETATM   22  C   LIG     1      57.344  -7.188  56.179  1.00  0.00     0.286 C 
BRANCH  20  23
HETATM   23  C   LIG     1      59.752  -5.248  56.794  1.00  0.00     0.251 C 
HETATM   24  C   LIG     1      60.052  -4.409  58.033  1.00  0.00     0.037 C 
ENDBRANCH  20  23
ENDBRANCH  16  17
ENDBRANCH  13  16
ENDBRANCH   8  10
ENDBRANCH   5   8
BRANCH   4  25
HETATM   25  C   LIG     1      49.569 -14.579  55.851  1.00  0.00     0.024 A 
HETATM   26  C   LIG     1      48.214 -14.945  55.889  1.00  0.00     0.033 A 
HETATM   27  C   LIG     1      47.807 -16.280  55.922  1.00  0.00     0.159 A 
HETATM   28  C   LIG     1      48.760 -17.304  55.915  1.00  0.00     0.126 A 
HETATM   29  F   LIG     1      46.496 -16.554  55.964  1.00  0.00    -0.203 F 
HETATM   30  C   LIG     1      50.110 -16.977  55.868  1.00  0.00     0.081 A 
HETATM   31  N   LIG     1      48.583 -18.656  55.953  1.00  0.00    -0.229 NA
HETATM   32  N   LIG     1      50.764 -18.207  55.859  1.00  0.00    -0.317 N 
HETATM   33  C   LIG     1      50.534 -15.626  55.839  1.00  0.00     0.021 A 
HETATM   34  C   LIG     1      49.786 -19.186  55.938  1.00  0.00     0.121 A 
HETATM   35  C   LIG     1      50.006 -20.653  55.996  1.00  0.00     0.072 C 
BRANCH  32  36
HETATM   36  C   LIG     1      52.215 -18.384  55.758  1.00  0.00     0.087 C 
HETATM   37  C   LIG     1      53.024 -17.814  56.931  1.00  0.00     0.025 C 
HETATM   38  C   LIG     1      52.781 -17.851  54.439  1.00  0.00     0.025 C 
ENDBRANCH  32  36
ENDBRANCH   4  25
TORSDOF 7
ENDMDL
MODEL 5
REMARK VINA RESULT:      -9.3      5.742      8.902
REMARK  7 active torsions:
REMARK  status: ('A' for Active; 'I' for Inactive)
REMARK    1  A    between atoms: C_4  and  C_25 
REMARK    2  A    between atoms: C_5  and  N_8 
REMARK    3  A    between atoms: N_8  and  C_10 
REMARK    4  A    between atoms: C_13  and  C_16 
REMARK    5  A    between atoms: C_16  and  N_17 
REMARK    6  A    between atoms: N_20  and  C_23 
REMARK    7  A    between atoms: N_28  and  C_36 
ROOT
HETATM    1  F   LIG     1      60.959  -2.792  81.916  1.00  0.00    -0.201 F 
HETATM    2  N   LIG     1      62.860   0.204  81.239  1.00  0.00    -0.059 NA
HETATM    3  N   LIG     1      60.567   0.743  81.393  1.00  0.00    -0.057 NA
HETATM    4  C   LIG     1      62.613  -1.105  81.465  1.00  0.00     0.129 A 
HETATM    5  C   LIG     1      61.851   1.100  81.216  1.00  0.00     0.729 A 
HETATM    6  C   LIG     1      61.309  -1.527  81.675  1.00  0.00     0.178 A 
HETATM    7  C   LIG     1      60.331  -0.561  81.631  1.00  0.00     0.149 A 
ENDROOT
BRANCH   5   8
HETATM    8  N   LIG     1      62.119   2.441  80.999  1.00  0.00    -0.170 N 
HETATM    9  H   LIG     1      63.104   2.635  80.889  1.00  0.00     0.186 HD
BRANCH   8  10
HETATM   10  C   LIG     1      61.353   3.558  81.317  1.00  0.00     0.156 A 
HETATM   11  C   LIG     1      60.709   4.307  80.336  1.00  0.00     0.037 A 
HETATM   12  C   LIG     1      59.879   5.362  80.688  1.00  0.00     0.002 A 
HETATM   13  C   LIG     1      59.739   5.698  82.028  1.00  0.00     0.030 A 
HETATM   14  C   LIG     1      60.463   4.948  82.946  1.00  0.00     0.098 A 
HETATM   15  N   LIG     1      61.260   3.897  82.620  1.00  0.00    -0.227 NA
BRANCH  13  16
HETATM   16  C   LIG     1      58.844   6.839  82.432  1.00  0.00     0.278 C 
BRANCH  16  17
HETATM   17  N   LIG     1      57.861   6.503  83.474  1.00  0.00     0.146 N 
HETATM   18  C   LIG     1      56.526   6.295  82.866  1.00  0.00     0.286 C 
HETATM   19  C   LIG     1      55.826   7.593  82.385  1.00  0.00     0.285 C 
HETATM   20  N   LIG     1      55.724   8.667  83.395  1.00  0.00     0.141 N 
HETATM   21  C   LIG     1      57.052   8.857  84.029  1.00  0.00     0.285 C 
HETATM   22  C   LIG     1      57.730   7.550  84.512  1.00  0.00     0.286 C 
BRANCH  20  23
HETATM   23  C   LIG     1      54.698   8.411  84.421  1.00  0.00     0.251 C 
HETATM   24  C   LIG     1      54.261   9.653  85.192  1.00  0.00     0.037 C 
ENDBRANCH  20  23
ENDBRANCH  16  17
ENDBRANCH  13  16
ENDBRANCH   8  10
ENDBRANCH   5   8
BRANCH   4  25
HETATM   25  C   LIG     1      63.829  -1.984  81.486  1.00  0.00     0.024 A 
HETATM   26  C   LIG     1      65.107  -1.453  81.717  1.00  0.00     0.033 A 
HETATM   27  C   LIG     1      66.251  -2.254  81.731  1.00  0.00     0.159 A 
HETATM   28  C   LIG     1      66.145  -3.632  81.515  1.00  0.00     0.126 A 
HETATM   29  F   LIG     1      67.441  -1.678  81.953  1.00  0.00    -0.203 F 
HETATM   30  C   LIG     1      64.892  -4.191  81.292  1.00  0.00     0.081 A 
HETATM   31  N   LIG     1      67.121  -4.584  81.476  1.00  0.00    -0.229 NA
HETATM   32  N   LIG     1      65.144  -5.552  81.132  1.00  0.00    -0.317 N 
HETATM   33  C   LIG     1      63.727  -3.387  81.270  1.00  0.00     0.021 A 
HETATM   34  C   LIG     1      66.515  -5.724  81.229  1.00  0.00     0.121 A 
HETATM   35  C   LIG     1      67.259  -7.001  81.086  1.00  0.00     0.072 C 
BRANCH  32  36
HETATM   36  C   LIG     1      64.116  -6.576  80.928  1.00  0.00     0.087 C 
HETATM   37  C   LIG     1      63.347  -6.472  79.604  1.00  0.00     0.025 C 
HETATM   38  C   LIG     1      63.125  -6.653  82.091  1.00  0.00     0.025 C 
ENDBRANCH  32  36
ENDBRANCH   4  25
TORSDOF 7
ENDMDL
MODEL 6
REMARK VINA RESULT:      -9.0     25.074     28.181
REMARK  7 active torsions:
REMARK  status: ('A' for Active; 'I' for Inactive)
REMARK    1  A    between atoms: C_4  and  C_25 
REMARK    2  A    between atoms: C_5  and  N_8 
REMARK    3  A    between atoms: N_8  and  C_10 
REMARK    4  A    between atoms: C_13  and  C_16 
REMARK    5  A    between atoms: C_16  and  N_17 
REMARK    6  A    between atoms: N_20  and  C_23 
REMARK    7  A    between atoms: N_28  and  C_36 
ROOT
HETATM    1  F   LIG     1      57.678  -9.664  58.719  1.00  0.00    -0.201 F 
HETATM    2  N   LIG     1      55.062 -11.152  56.722  1.00  0.00    -0.059 NA
HETATM    3  N   LIG     1      54.415 -11.146  58.993  1.00  0.00    -0.057 NA
HETATM    4  C   LIG     1      56.247 -10.571  57.013  1.00  0.00     0.129 A 
HETATM    5  C   LIG     1      54.170 -11.419  57.700  1.00  0.00     0.729 A 
HETATM    6  C   LIG     1      56.545 -10.248  58.328  1.00  0.00     0.178 A 
HETATM    7  C   LIG     1      55.592 -10.556  59.271  1.00  0.00     0.149 A 
ENDROOT
BRANCH   5   8
HETATM    8  N   LIG     1      52.953 -12.001  57.387  1.00  0.00    -0.170 N 
HETATM    9  H   LIG     1      53.044 -12.941  57.027  1.00  0.00     0.186 HD
BRANCH   8  10
HETATM   10  C   LIG     1      51.735 -11.398  57.092  1.00  0.00     0.156 A 
HETATM   11  C   LIG     1      51.035 -10.659  58.042  1.00  0.00     0.037 A 
HETATM   12  C   LIG     1      49.868  -9.994  57.696  1.00  0.00     0.002 A 
HETATM   13  C   LIG     1      49.374 -10.114  56.404  1.00  0.00     0.030 A 
HETATM   14  C   LIG     1      50.090 -10.920  55.527  1.00  0.00     0.098 A 
HETATM   15  N   LIG     1      51.248 -11.558  55.843  1.00  0.00    -0.227 NA
BRANCH  13  16
HETATM   16  C   LIG     1      48.109  -9.401  56.008  1.00  0.00     0.278 C 
BRANCH  16  17
HETATM   17  N   LIG     1      46.906  -9.851  56.726  1.00  0.00     0.146 N 
HETATM   18  C   LIG     1      46.510 -11.200  56.258  1.00  0.00     0.286 C 
HETATM   19  C   LIG     1      45.884 -11.234  54.839  1.00  0.00     0.285 C 
HETATM   20  N   LIG     1      44.752 -10.308  54.627  1.00  0.00     0.141 N 
HETATM   21  C   LIG     1      45.133  -8.962  55.122  1.00  0.00     0.285 C 
HETATM   22  C   LIG     1      45.747  -8.948  56.545  1.00  0.00     0.286 C 
BRANCH  20  23
HETATM   23  C   LIG     1      43.501 -10.754  55.265  1.00  0.00     0.251 C 
HETATM   24  C   LIG     1      43.056 -12.155  54.857  1.00  0.00     0.037 C 
ENDBRANCH  20  23
ENDBRANCH  16  17
ENDBRANCH  13  16
ENDBRANCH   8  10
ENDBRANCH   5   8
BRANCH   4  25
HETATM   25  C   LIG     1      57.131 -10.311  55.829  1.00  0.00     0.024 A 
HETATM   26  C   LIG     1      57.203 -11.218  54.760  1.00  0.00     0.033 A 
HETATM   27  C   LIG     1      58.027 -10.997  53.654  1.00  0.00     0.159 A 
HETATM   28  C   LIG     1      58.812  -9.841  53.585  1.00  0.00     0.126 A 
HETATM   29  F   LIG     1      58.049 -11.909  52.673  1.00  0.00    -0.203 F 
HETATM   30  C   LIG     1      58.757  -8.918  54.623  1.00  0.00     0.081 A 
HETATM   31  N   LIG     1      59.682  -9.438  52.615  1.00  0.00    -0.229 NA
HETATM   32  N   LIG     1      59.631  -7.906  54.232  1.00  0.00    -0.317 N 
HETATM   33  C   LIG     1      57.929  -9.135  55.750  1.00  0.00     0.021 A 
HETATM   34  C   LIG     1      60.181  -8.290  53.019  1.00  0.00     0.121 A 
HETATM   35  C   LIG     1      61.196  -7.547  52.232  1.00  0.00     0.072 C 
BRANCH  32  36
HETATM   36  C   LIG     1      59.873  -6.671  54.983  1.00  0.00     0.087 C 
HETATM   37  C   LIG     1      60.349  -6.870  56.427  1.00  0.00     0.025 C 
HETATM   38  C   LIG     1      58.667  -5.729  54.967  1.00  0.00     0.025 C 
ENDBRANCH  32  36
ENDBRANCH   4  25
TORSDOF 7
ENDMDL
MODEL 7
REMARK VINA RESULT:      -8.9     26.842     28.416
REMARK  7 active torsions:
REMARK  status: ('A' for Active; 'I' for Inactive)
REMARK    1  A    between atoms: C_4  and  C_25 
REMARK    2  A    between atoms: C_5  and  N_8 
REMARK    3  A    between atoms: N_8  and  C_10 
REMARK    4  A    between atoms: C_13  and  C_16 
REMARK    5  A    between atoms: C_16  and  N_17 
REMARK    6  A    between atoms: N_20  and  C_23 
REMARK    7  A    between atoms: N_28  and  C_36 
ROOT
HETATM    1  F   LIG     1      45.957 -13.367  56.292  1.00  0.00    -0.201 F 
HETATM    2  N   LIG     1      49.389 -12.870  55.279  1.00  0.00    -0.059 NA
HETATM    3  N   LIG     1      48.288 -10.784  55.389  1.00  0.00    -0.057 NA
HETATM    4  C   LIG     1      48.269 -13.530  55.648  1.00  0.00     0.129 A 
HETATM    5  C   LIG     1      49.387 -11.525  55.165  1.00  0.00     0.729 A 
HETATM    6  C   LIG     1      47.110 -12.815  55.912  1.00  0.00     0.178 A 
HETATM    7  C   LIG     1      47.181 -11.449  55.768  1.00  0.00     0.149 A 
ENDROOT
BRANCH   5   8
HETATM    8  N   LIG     1      50.546 -10.860  54.800  1.00  0.00    -0.170 N 
HETATM    9  H   LIG     1      50.662 -10.785  53.800  1.00  0.00     0.186 HD
BRANCH   8  10
HETATM   10  C   LIG     1      51.720 -10.670  55.522  1.00  0.00     0.156 A 
HETATM   11  C   LIG     1      52.607 -11.715  55.766  1.00  0.00     0.037 A 
HETATM   12  C   LIG     1      53.813 -11.479  56.410  1.00  0.00     0.002 A 
HETATM   13  C   LIG     1      54.105 -10.197  56.857  1.00  0.00     0.030 A 
HETATM   14  C   LIG     1      53.145  -9.217  56.636  1.00  0.00     0.098 A 
HETATM   15  N   LIG     1      51.971  -9.427  55.985  1.00  0.00    -0.227 NA
BRANCH  13  16
HETATM   16  C   LIG     1      55.408  -9.919  57.558  1.00  0.00     0.278 C 
BRANCH  16  17
HETATM   17  N   LIG     1      56.591  -9.958  56.683  1.00  0.00     0.146 N 
HETATM   18  C   LIG     1      57.803  -9.586  57.451  1.00  0.00     0.286 C 
HETATM   19  C   LIG     1      57.905  -8.081  57.808  1.00  0.00     0.285 C 
HETATM   20  N   LIG     1      57.763  -7.151  56.668  1.00  0.00     0.141 N 
HETATM   21  C   LIG     1      56.568  -7.537  55.879  1.00  0.00     0.285 C 
HETATM   22  C   LIG     1      56.488  -9.043  55.524  1.00  0.00     0.286 C 
BRANCH  20  23
HETATM   23  C   LIG     1      58.953  -7.097  55.802  1.00  0.00     0.251 C 
HETATM   24  C   LIG     1      58.954  -5.938  54.810  1.00  0.00     0.037 C 
ENDBRANCH  20  23
ENDBRANCH  16  17
ENDBRANCH  13  16
ENDBRANCH   8  10
ENDBRANCH   5   8
BRANCH   4  25
HETATM   25  C   LIG     1      48.418 -15.019  55.757  1.00  0.00     0.024 A 
HETATM   26  C   LIG     1      47.299 -15.857  55.876  1.00  0.00     0.033 A 
HETATM   27  C   LIG     1      47.419 -17.244  55.988  1.00  0.00     0.159 A 
HETATM   28  C   LIG     1      48.684 -17.840  55.980  1.00  0.00     0.126 A 
HETATM   29  F   LIG     1      46.306 -17.981  56.104  1.00  0.00    -0.203 F 
HETATM   30  C   LIG     1      49.814 -17.040  55.854  1.00  0.00     0.081 A 
HETATM   31  N   LIG     1      49.025 -19.157  56.086  1.00  0.00    -0.229 NA
HETATM   32  N   LIG     1      50.878 -17.938  55.868  1.00  0.00    -0.317 N 
HETATM   33  C   LIG     1      49.702 -15.632  55.746  1.00  0.00     0.021 A 
HETATM   34  C   LIG     1      50.339 -19.204  56.037  1.00  0.00     0.121 A 
HETATM   35  C   LIG     1      51.090 -20.478  56.148  1.00  0.00     0.072 C 
BRANCH  32  36
HETATM   36  C   LIG     1      52.287 -17.570  55.705  1.00  0.00     0.087 C 
HETATM   37  C   LIG     1      52.830 -16.592  56.755  1.00  0.00     0.025 C 
HETATM   38  C   LIG     1      52.598 -17.041  54.303  1.00  0.00     0.025 C 
ENDBRANCH  32  36
ENDBRANCH   4  25
TORSDOF 7
ENDMDL
MODEL 8
REMARK VINA RESULT:      -8.8     25.650     28.334
REMARK  7 active torsions:
REMARK  status: ('A' for Active; 'I' for Inactive)
REMARK    1  A    between atoms: C_4  and  C_25 
REMARK    2  A    between atoms: C_5  and  N_8 
REMARK    3  A    between atoms: N_8  and  C_10 
REMARK    4  A    between atoms: C_13  and  C_16 
REMARK    5  A    between atoms: C_16  and  N_17 
REMARK    6  A    between atoms: N_20  and  C_23 
REMARK    7  A    between atoms: N_28  and  C_36 
ROOT
HETATM    1  F   LIG     1      55.966 -10.199  59.650  1.00  0.00    -0.201 F 
HETATM    2  N   LIG     1      54.073 -11.612  56.917  1.00  0.00    -0.059 NA
HETATM    3  N   LIG     1      53.015 -12.132  58.962  1.00  0.00    -0.057 NA
HETATM    4  C   LIG     1      55.063 -10.944  57.549  1.00  0.00     0.129 A 
HETATM    5  C   LIG     1      53.071 -12.180  57.620  1.00  0.00     0.729 A 
HETATM    6  C   LIG     1      55.045 -10.843  58.931  1.00  0.00     0.178 A 
HETATM    7  C   LIG     1      53.998 -11.453  59.582  1.00  0.00     0.149 A 
ENDROOT
BRANCH   5   8
HETATM    8  N   LIG     1      52.055 -12.850  56.959  1.00  0.00    -0.170 N 
HETATM    9  H   LIG     1      52.351 -13.731  56.564  1.00  0.00     0.186 HD
BRANCH   8  10
HETATM   10  C   LIG     1      50.880 -12.349  56.407  1.00  0.00     0.156 A 
HETATM   11  C   LIG     1      50.638 -10.981  56.318  1.00  0.00     0.037 A 
HETATM   12  C   LIG     1      49.500 -10.507  55.681  1.00  0.00     0.002 A 
HETATM   13  C   LIG     1      48.575 -11.414  55.179  1.00  0.00     0.030 A 
HETATM   14  C   LIG     1      48.851 -12.763  55.362  1.00  0.00     0.098 A 
HETATM   15  N   LIG     1      49.973 -13.243  55.960  1.00  0.00    -0.227 NA
BRANCH  13  16
HETATM   16  C   LIG     1      47.333 -10.922  54.486  1.00  0.00     0.278 C 
BRANCH  16  17
HETATM   17  N   LIG     1      46.076 -11.261  55.174  1.00  0.00     0.146 N 
HETATM   18  C   LIG     1      44.961 -10.458  54.618  1.00  0.00     0.286 C 
HETATM   19  C   LIG     1      44.978  -8.961  55.023  1.00  0.00     0.285 C 
HETATM   20  N   LIG     1      45.072  -8.701  56.475  1.00  0.00     0.141 N 
HETATM   21  C   LIG     1      46.167  -9.526  57.041  1.00  0.00     0.285 C 
HETATM   22  C   LIG     1      46.127 -11.020  56.633  1.00  0.00     0.286 C 
BRANCH  20  23
HETATM   23  C   LIG     1      43.814  -8.954  57.198  1.00  0.00     0.251 C 
HETATM   24  C   LIG     1      43.910  -8.758  58.709  1.00  0.00     0.037 C 
ENDBRANCH  20  23
ENDBRANCH  16  17
ENDBRANCH  13  16
ENDBRANCH   8  10
ENDBRANCH   5   8
BRANCH   4  25
HETATM   25  C   LIG     1      56.099 -10.343  56.644  1.00  0.00     0.024 A 
HETATM   26  C   LIG     1      56.448  -8.986  56.736  1.00  0.00     0.033 A 
HETATM   27  C   LIG     1      57.402  -8.408  55.897  1.00  0.00     0.159 A 
HETATM   28  C   LIG     1      58.047  -9.184  54.928  1.00  0.00     0.126 A 
HETATM   29  F   LIG     1      57.681  -7.105  56.038  1.00  0.00    -0.203 F 
HETATM   30  C   LIG     1      57.731 -10.533  54.817  1.00  0.00     0.081 A 
HETATM   31  N   LIG     1      58.989  -8.824  54.011  1.00  0.00    -0.229 NA
HETATM   32  N   LIG     1      58.548 -10.996  53.788  1.00  0.00    -0.317 N 
HETATM   33  C   LIG     1      56.761 -11.128  55.659  1.00  0.00     0.021 A 
HETATM   34  C   LIG     1      59.269  -9.908  53.322  1.00  0.00     0.121 A 
HETATM   35  C   LIG     1      60.244  -9.907  52.203  1.00  0.00     0.072 C 
BRANCH  32  36
HETATM   36  C   LIG     1      58.617 -12.388  53.334  1.00  0.00     0.087 C 
HETATM   37  C   LIG     1      57.335 -12.926  52.686  1.00  0.00     0.025 C 
HETATM   38  C   LIG     1      59.072 -13.344  54.440  1.00  0.00     0.025 C 
ENDBRANCH  32  36
ENDBRANCH   4  25
TORSDOF 7
ENDMDL
MODEL 9
REMARK VINA RESULT:      -8.6     27.258     28.862
REMARK  7 active torsions:
REMARK  status: ('A' for Active; 'I' for Inactive)
REMARK    1  A    between atoms: C_4  and  C_25 
REMARK    2  A    between atoms: C_5  and  N_8 
REMARK    3  A    between atoms: N_8  and  C_10 
REMARK    4  A    between atoms: C_13  and  C_16 
REMARK    5  A    between atoms: C_16  and  N_17 
REMARK    6  A    between atoms: N_20  and  C_23 
REMARK    7  A    between atoms: N_28  and  C_36 
ROOT
HETATM    1  F   LIG     1      47.909 -11.916  54.748  1.00  0.00    -0.201 F 
HETATM    2  N   LIG     1      51.106 -12.491  56.330  1.00  0.00    -0.059 NA
HETATM    3  N   LIG     1      50.841 -10.185  55.900  1.00  0.00    -0.057 NA
HETATM    4  C   LIG     1      49.900 -12.774  55.789  1.00  0.00     0.129 A 
HETATM    5  C   LIG     1      51.550 -11.218  56.387  1.00  0.00     0.729 A 
HETATM    6  C   LIG     1      49.116 -11.746  55.291  1.00  0.00     0.178 A 
HETATM    7  C   LIG     1      49.636 -10.475  55.376  1.00  0.00     0.149 A 
ENDROOT
BRANCH   5   8
HETATM    8  N   LIG     1      52.781 -10.938  56.956  1.00  0.00    -0.170 N 
HETATM    9  H   LIG     1      52.726 -10.272  57.714  1.00  0.00     0.186 HD
BRANCH   8  10
HETATM   10  C   LIG     1      54.056 -11.078  56.417  1.00  0.00     0.156 A 
HETATM   11  C   LIG     1      55.156 -11.390  57.211  1.00  0.00     0.037 A 
HETATM   12  C   LIG     1      56.399 -11.612  56.636  1.00  0.00     0.002 A 
HETATM   13  C   LIG     1      56.548 -11.468  55.263  1.00  0.00     0.030 A 
HETATM   14  C   LIG     1      55.421 -11.092  54.542  1.00  0.00     0.098 A 
HETATM   15  N   LIG     1      54.192 -10.896  55.087  1.00  0.00    -0.227 NA
BRANCH  13  16
HETATM   16  C   LIG     1      57.887 -11.704  54.618  1.00  0.00     0.278 C 
BRANCH  16  17
HETATM   17  N   LIG     1      57.963 -11.297  53.205  1.00  0.00     0.146 N 
HETATM   18  C   LIG     1      58.032 -12.495  52.334  1.00  0.00     0.286 C 
HETATM   19  C   LIG     1      59.391 -13.241  52.370  1.00  0.00     0.285 C 
HETATM   20  N   LIG     1      60.580 -12.401  52.115  1.00  0.00     0.141 N 
HETATM   21  C   LIG     1      60.500 -11.185  52.962  1.00  0.00     0.285 C 
HETATM   22  C   LIG     1      59.138 -10.448  52.905  1.00  0.00     0.286 C 
BRANCH  20  23
HETATM   23  C   LIG     1      60.742 -12.029  50.699  1.00  0.00     0.251 C 
HETATM   24  C   LIG     1      62.124 -12.330  50.127  1.00  0.00     0.037 C 
ENDBRANCH  20  23
ENDBRANCH  16  17
ENDBRANCH  13  16
ENDBRANCH   8  10
ENDBRANCH   5   8
BRANCH   4  25
HETATM   25  C   LIG     1      49.522 -14.226  55.812  1.00  0.00     0.024 A 
HETATM   26  C   LIG     1      48.178 -14.629  55.831  1.00  0.00     0.033 A 
HETATM   27  C   LIG     1      47.807 -15.975  55.861  1.00  0.00     0.159 A 
HETATM   28  C   LIG     1      48.788 -16.972  55.872  1.00  0.00     0.126 A 
HETATM   29  F   LIG     1      46.504 -16.286  55.883  1.00  0.00    -0.203 F 
HETATM   30  C   LIG     1      50.130 -16.608  55.845  1.00  0.00     0.081 A 
HETATM   31  N   LIG     1      48.650 -18.328  55.911  1.00  0.00    -0.229 NA
HETATM   32  N   LIG     1      50.818 -17.818  55.850  1.00  0.00    -0.317 N 
HETATM   33  C   LIG     1      50.515 -15.245  55.819  1.00  0.00     0.021 A 
HETATM   34  C   LIG     1      49.867 -18.825  55.916  1.00  0.00     0.121 A 
HETATM   35  C   LIG     1      50.127 -20.285  55.981  1.00  0.00     0.072 C 
BRANCH  32  36
HETATM   36  C   LIG     1      52.275 -17.955  55.772  1.00  0.00     0.087 C 
HETATM   37  C   LIG     1      53.053 -17.288  56.913  1.00  0.00     0.025 C 
HETATM   38  C   LIG     1      52.837 -17.488  54.427  1.00  0.00     0.025 C 
ENDBRANCH  32  36
ENDBRANCH   4  25
TORSDOF 7
ENDMDL
