MODEL 1
REMARK VINA RESULT:     -10.0      0.000      0.000
REMARK  7 active torsions:
REMARK  status: ('A' for Active; 'I' for Inactive)
REMARK    1  A    between atoms: C_4  and  C_25 
REMARK    2  A    between atoms: C_5  and  N_8 
REMARK    3  A    between atoms: N_8  and  C_10 
REMARK    4  A    between atoms: C_13  and  C_16 
REMARK    5  A    between atoms: C_16  and  N_17 
REMARK    6  A    between atoms: N_20  and  C_23 
REMARK    7  A    between atoms: N_28  and  C_36 
ROOT
HETATM    1  F   LIG     1      54.952 -15.781  55.132  1.00  0.00    -0.201 F 
HETATM    2  N   LIG     1      52.547 -14.226  57.333  1.00  0.00    -0.059 NA
HETATM    3  N   LIG     1      54.038 -12.591  56.512  1.00  0.00    -0.057 NA
HETATM    4  C   LIG     1      53.176 -15.206  56.649  1.00  0.00     0.129 A 
HETATM    5  C   LIG     1      52.973 -12.948  57.250  1.00  0.00     0.729 A 
HETATM    6  C   LIG     1      54.268 -14.893  55.854  1.00  0.00     0.178 A 
HETATM    7  C   LIG     1      54.651 -13.571  55.823  1.00  0.00     0.149 A 
ENDROOT
BRANCH   5   8
HETATM    8  N   LIG     1      52.311 -11.951  57.945  1.00  0.00    -0.170 N 
HETATM    9  H   LIG     1      52.479 -11.982  58.941  1.00  0.00     0.186 HD
BRANCH   8  10
HETATM   10  C   LIG     1      51.180 -11.224  57.585  1.00  0.00     0.156 A 
HETATM   11  C   LIG     1      50.260 -10.784  58.532  1.00  0.00     0.037 A 
HETATM   12  C   LIG     1      49.190  -9.984  58.156  1.00  0.00     0.002 A 
HETATM   13  C   LIG     1      49.015  -9.670  56.814  1.00  0.00     0.030 A 
HETATM   14  C   LIG     1      49.936 -10.198  55.918  1.00  0.00     0.098 A 
HETATM   15  N   LIG     1      51.003 -10.961  56.273  1.00  0.00    -0.227 NA
BRANCH  13  16
HETATM   16  C   LIG     1      47.861  -8.805  56.385  1.00  0.00     0.278 C 
BRANCH  16  17
HETATM   17  N   LIG     1      47.165  -9.275  55.175  1.00  0.00     0.146 N 
HETATM   18  C   LIG     1      45.893  -8.534  55.001  1.00  0.00     0.286 C 
HETATM   19  C   LIG     1      44.776  -8.925  56.003  1.00  0.00     0.285 C 
HETATM   20  N   LIG     1      44.476 -10.369  56.081  1.00  0.00     0.141 N 
HETATM   21  C   LIG     1      45.749 -11.118  56.225  1.00  0.00     0.285 C 
HETATM   22  C   LIG     1      46.849 -10.720  55.209  1.00  0.00     0.286 C 
BRANCH  20  23
HETATM   23  C   LIG     1      43.713 -10.873  54.926  1.00  0.00     0.251 C 
HETATM   24  C   LIG     1      42.713 -11.974  55.268  1.00  0.00     0.037 C 
ENDBRANCH  20  23
ENDBRANCH  16  17
ENDBRANCH  13  16
ENDBRANCH   8  10
ENDBRANCH   5   8
BRANCH   4  25
HETATM   25  C   LIG     1      52.583 -16.575  56.815  1.00  0.00     0.024 A 
HETATM   26  C   LIG     1      51.200 -16.787  56.710  1.00  0.00     0.033 A 
HETATM   27  C   LIG     1      50.629 -18.051  56.871  1.00  0.00     0.159 A 
HETATM   28  C   LIG     1      51.441 -19.158  57.141  1.00  0.00     0.126 A 
HETATM   29  F   LIG     1      49.299 -18.178  56.763  1.00  0.00    -0.203 F 
HETATM   30  C   LIG     1      52.817 -18.984  57.242  1.00  0.00     0.081 A 
HETATM   31  N   LIG     1      51.095 -20.462  57.342  1.00  0.00    -0.229 NA
HETATM   32  N   LIG     1      53.309 -20.261  57.497  1.00  0.00    -0.317 N 
HETATM   33  C   LIG     1      53.404 -17.705  57.086  1.00  0.00     0.021 A 
HETATM   34  C   LIG     1      52.216 -21.110  57.572  1.00  0.00     0.121 A 
HETATM   35  C   LIG     1      52.244 -22.565  57.864  1.00  0.00     0.072 C 
BRANCH  32  36
HETATM   36  C   LIG     1      54.729 -20.602  57.629  1.00  0.00     0.087 C 
HETATM   37  C   LIG     1      55.332 -21.351  56.434  1.00  0.00     0.025 C 
HETATM   38  C   LIG     1      55.031 -21.367  58.919  1.00  0.00     0.025 C 
ENDBRANCH  32  36
ENDBRANCH   4  25
TORSDOF 7
ENDMDL
MODEL 2
REMARK VINA RESULT:     -10.0      5.864      8.468
REMARK  7 active torsions:
REMARK  status: ('A' for Active; 'I' for Inactive)
REMARK    1  A    between atoms: C_4  and  C_25 
REMARK    2  A    between atoms: C_5  and  N_8 
REMARK    3  A    between atoms: N_8  and  C_10 
REMARK    4  A    between atoms: C_13  and  C_16 
REMARK    5  A    between atoms: C_16  and  N_17 
REMARK    6  A    between atoms: N_20  and  C_23 
REMARK    7  A    between atoms: N_28  and  C_36 
ROOT
HETATM    1  F   LIG     1      57.242  -9.564  59.933  1.00  0.00    -0.201 F 
HETATM    2  N   LIG     1      55.066 -10.405  57.175  1.00  0.00    -0.059 NA
HETATM    3  N   LIG     1      54.176 -11.281  59.179  1.00  0.00    -0.057 NA
HETATM    4  C   LIG     1      56.131  -9.885  57.825  1.00  0.00     0.129 A 
HETATM    5  C   LIG     1      54.111 -11.078  57.852  1.00  0.00     0.729 A 
HETATM    6  C   LIG     1      56.239 -10.046  59.197  1.00  0.00     0.178 A 
HETATM    7  C   LIG     1      55.233 -10.749  59.819  1.00  0.00     0.149 A 
ENDROOT
BRANCH   5   8
HETATM    8  N   LIG     1      53.017 -11.594  57.177  1.00  0.00    -0.170 N 
HETATM    9  H   LIG     1      53.269 -12.275  56.475  1.00  0.00     0.186 HD
BRANCH   8  10
HETATM   10  C   LIG     1      51.746 -11.052  57.010  1.00  0.00     0.156 A 
HETATM   11  C   LIG     1      50.799 -11.080  58.029  1.00  0.00     0.037 A 
HETATM   12  C   LIG     1      49.572 -10.453  57.866  1.00  0.00     0.002 A 
HETATM   13  C   LIG     1      49.276  -9.842  56.655  1.00  0.00     0.030 A 
HETATM   14  C   LIG     1      50.245  -9.909  55.661  1.00  0.00     0.098 A 
HETATM   15  N   LIG     1      51.460 -10.497  55.813  1.00  0.00    -0.227 NA
BRANCH  13  16
HETATM   16  C   LIG     1      47.951  -9.156  56.457  1.00  0.00     0.278 C 
BRANCH  16  17
HETATM   17  N   LIG     1      47.236  -9.555  55.233  1.00  0.00     0.146 N 
HETATM   18  C   LIG     1      46.014  -8.733  55.068  1.00  0.00     0.286 C 
HETATM   19  C   LIG     1      44.867  -9.075  56.055  1.00  0.00     0.285 C 
HETATM   20  N   LIG     1      44.477 -10.499  56.099  1.00  0.00     0.141 N 
HETATM   21  C   LIG     1      45.699 -11.329  56.233  1.00  0.00     0.285 C 
HETATM   22  C   LIG     1      46.830 -10.978  55.233  1.00  0.00     0.286 C 
BRANCH  20  23
HETATM   23  C   LIG     1      43.692 -10.929  54.929  1.00  0.00     0.251 C 
HETATM   24  C   LIG     1      42.650 -12.001  55.233  1.00  0.00     0.037 C 
ENDBRANCH  20  23
ENDBRANCH  16  17
ENDBRANCH  13  16
ENDBRANCH   8  10
ENDBRANCH   5   8
BRANCH   4  25
HETATM   25  C   LIG     1      57.102  -9.143  56.954  1.00  0.00     0.024 A 
HETATM   26  C   LIG     1      57.589  -7.878  57.319  1.00  0.00     0.033 A 
HETATM   27  C   LIG     1      58.486  -7.169  56.518  1.00  0.00     0.159 A 
HETATM   28  C   LIG     1      58.930  -7.716  55.309  1.00  0.00     0.126 A 
HETATM   29  F   LIG     1      58.905  -5.964  56.927  1.00  0.00    -0.203 F 
HETATM   30  C   LIG     1      58.473  -8.971  54.922  1.00  0.00     0.081 A 
HETATM   31  N   LIG     1      59.784  -7.197  54.382  1.00  0.00    -0.229 NA
HETATM   32  N   LIG     1      59.110  -9.211  53.707  1.00  0.00    -0.317 N 
HETATM   33  C   LIG     1      57.560  -9.696  55.725  1.00  0.00     0.021 A 
HETATM   34  C   LIG     1      59.872  -8.089  53.419  1.00  0.00     0.121 A 
HETATM   35  C   LIG     1      60.699  -7.868  52.207  1.00  0.00     0.072 C 
BRANCH  32  36
HETATM   36  C   LIG     1      58.989 -10.445  52.926  1.00  0.00     0.087 C 
HETATM   37  C   LIG     1      57.632 -11.153  53.034  1.00  0.00     0.025 C 
HETATM   38  C   LIG     1      60.111 -11.442  53.226  1.00  0.00     0.025 C 
ENDBRANCH  32  36
ENDBRANCH   4  25
TORSDOF 7
ENDMDL
MODEL 3
REMARK VINA RESULT:      -9.9      5.622      8.388
REMARK  7 active torsions:
REMARK  status: ('A' for Active; 'I' for Inactive)
REMARK    1  A    between atoms: C_4  and  C_25 
REMARK    2  A    between atoms: C_5  and  N_8 
REMARK    3  A    between atoms: N_8  and  C_10 
REMARK    4  A    between atoms: C_13  and  C_16 
REMARK    5  A    between atoms: C_16  and  N_17 
REMARK    6  A    between atoms: N_20  and  C_23 
REMARK    7  A    between atoms: N_28  and  C_36 
ROOT
HETATM    1  F   LIG     1      57.385  -9.637  59.003  1.00  0.00    -0.201 F 
HETATM    2  N   LIG     1      54.745 -11.066  56.994  1.00  0.00    -0.059 NA
HETATM    3  N   LIG     1      54.041 -10.933  59.243  1.00  0.00    -0.057 NA
HETATM    4  C   LIG     1      55.951 -10.537  57.295  1.00  0.00     0.129 A 
HETATM    5  C   LIG     1      53.815 -11.246  57.956  1.00  0.00     0.729 A 
HETATM    6  C   LIG     1      56.232 -10.176  58.604  1.00  0.00     0.178 A 
HETATM    7  C   LIG     1      55.240 -10.394  59.532  1.00  0.00     0.149 A 
ENDROOT
BRANCH   5   8
HETATM    8  N   LIG     1      52.578 -11.776  57.632  1.00  0.00    -0.170 N 
HETATM    9  H   LIG     1      52.631 -12.719  57.275  1.00  0.00     0.186 HD
BRANCH   8  10
HETATM   10  C   LIG     1      51.389 -11.121  57.326  1.00  0.00     0.156 A 
HETATM   11  C   LIG     1      50.385 -10.944  58.274  1.00  0.00     0.037 A 
HETATM   12  C   LIG     1      49.249 -10.209  57.967  1.00  0.00     0.002 A 
HETATM   13  C   LIG     1      49.097  -9.696  56.686  1.00  0.00     0.030 A 
HETATM   14  C   LIG     1      50.108  -9.967  55.773  1.00  0.00     0.098 A 
HETATM   15  N   LIG     1      51.238 -10.663  56.065  1.00  0.00    -0.227 NA
BRANCH  13  16
HETATM   16  C   LIG     1      47.872  -8.896  56.332  1.00  0.00     0.278 C 
BRANCH  16  17
HETATM   17  N   LIG     1      47.175  -9.355  55.119  1.00  0.00     0.146 N 
HETATM   18  C   LIG     1      45.901  -8.615  54.955  1.00  0.00     0.286 C 
HETATM   19  C   LIG     1      44.786  -9.018  55.955  1.00  0.00     0.285 C 
HETATM   20  N   LIG     1      44.489 -10.464  56.019  1.00  0.00     0.141 N 
HETATM   21  C   LIG     1      45.763 -11.211  56.153  1.00  0.00     0.285 C 
HETATM   22  C   LIG     1      46.861 -10.801  55.139  1.00  0.00     0.286 C 
BRANCH  20  23
HETATM   23  C   LIG     1      43.725 -10.958  54.860  1.00  0.00     0.251 C 
HETATM   24  C   LIG     1      42.624 -11.954  55.215  1.00  0.00     0.037 C 
ENDBRANCH  20  23
ENDBRANCH  16  17
ENDBRANCH  13  16
ENDBRANCH   8  10
ENDBRANCH   5   8
BRANCH   4  25
HETATM   25  C   LIG     1      56.879 -10.372  56.127  1.00  0.00     0.024 A 
HETATM   26  C   LIG     1      57.165 -11.444  55.267  1.00  0.00     0.033 A 
HETATM   27  C   LIG     1      58.032 -11.313  54.180  1.00  0.00     0.159 A 
HETATM   28  C   LIG     1      58.645 -10.083  53.918  1.00  0.00     0.126 A 
HETATM   29  F   LIG     1      58.263 -12.381  53.405  1.00  0.00    -0.203 F 
HETATM   30  C   LIG     1      58.376  -8.998  54.745  1.00  0.00     0.081 A 
HETATM   31  N   LIG     1      59.521  -9.742  52.930  1.00  0.00    -0.229 NA
HETATM   32  N   LIG     1      59.122  -7.955  54.201  1.00  0.00    -0.317 N 
HETATM   33  C   LIG     1      57.502  -9.123  55.852  1.00  0.00     0.021 A 
HETATM   34  C   LIG     1      59.815  -8.474  53.118  1.00  0.00     0.121 A 
HETATM   35  C   LIG     1      60.770  -7.744  52.248  1.00  0.00     0.072 C 
BRANCH  32  36
HETATM   36  C   LIG     1      59.123  -6.577  54.699  1.00  0.00     0.087 C 
HETATM   37  C   LIG     1      59.393  -6.428  56.202  1.00  0.00     0.025 C 
HETATM   38  C   LIG     1      57.846  -5.819  54.331  1.00  0.00     0.025 C 
ENDBRANCH  32  36
ENDBRANCH   4  25
TORSDOF 7
ENDMDL
MODEL 4
REMARK VINA RESULT:      -9.6     29.143     32.249
REMARK  7 active torsions:
REMARK  status: ('A' for Active; 'I' for Inactive)
REMARK    1  A    between atoms: C_4  and  C_25 
REMARK    2  A    between atoms: C_5  and  N_8 
REMARK    3  A    between atoms: N_8  and  C_10 
REMARK    4  A    between atoms: C_13  and  C_16 
REMARK    5  A    between atoms: C_16  and  N_17 
REMARK    6  A    between atoms: N_20  and  C_23 
REMARK    7  A    between atoms: N_28  and  C_36 
ROOT
HETATM    1  F   LIG     1      64.166  -0.573  78.431  1.00  0.00    -0.201 F 
HETATM    2  N   LIG     1      63.765   2.517  80.258  1.00  0.00    -0.059 NA
HETATM    3  N   LIG     1      62.557   0.799  81.337  1.00  0.00    -0.057 NA
HETATM    4  C   LIG     1      64.184   1.673  79.290  1.00  0.00     0.129 A 
HETATM    5  C   LIG     1      62.976   2.074  81.260  1.00  0.00     0.729 A 
HETATM    6  C   LIG     1      63.800   0.342  79.330  1.00  0.00     0.178 A 
HETATM    7  C   LIG     1      62.990  -0.037  80.376  1.00  0.00     0.149 A 
ENDROOT
BRANCH   5   8
HETATM    8  N   LIG     1      62.565   2.945  82.255  1.00  0.00    -0.170 N 
HETATM    9  H   LIG     1      62.746   2.598  83.186  1.00  0.00     0.186 HD
BRANCH   8  10
HETATM   10  C   LIG     1      61.613   3.959  82.204  1.00  0.00     0.156 A 
HETATM   11  C   LIG     1      60.984   4.313  81.014  1.00  0.00     0.037 A 
HETATM   12  C   LIG     1      59.974   5.265  81.008  1.00  0.00     0.002 A 
HETATM   13  C   LIG     1      59.633   5.901  82.194  1.00  0.00     0.030 A 
HETATM   14  C   LIG     1      60.347   5.543  83.331  1.00  0.00     0.098 A 
HETATM   15  N   LIG     1      61.321   4.595  83.358  1.00  0.00    -0.227 NA
BRANCH  13  16
HETATM   16  C   LIG     1      58.541   6.936  82.210  1.00  0.00     0.278 C 
BRANCH  16  17
HETATM   17  N   LIG     1      57.234   6.437  82.670  1.00  0.00     0.146 N 
HETATM   18  C   LIG     1      56.261   6.455  81.552  1.00  0.00     0.286 C 
HETATM   19  C   LIG     1      55.770   7.868  81.146  1.00  0.00     0.285 C 
HETATM   20  N   LIG     1      55.237   8.692  82.252  1.00  0.00     0.141 N 
HETATM   21  C   LIG     1      56.193   8.652  83.385  1.00  0.00     0.285 C 
HETATM   22  C   LIG     1      56.665   7.231  83.782  1.00  0.00     0.286 C 
BRANCH  20  23
HETATM   23  C   LIG     1      53.895   8.278  82.698  1.00  0.00     0.251 C 
HETATM   24  C   LIG     1      52.876   8.140  81.571  1.00  0.00     0.037 C 
ENDBRANCH  20  23
ENDBRANCH  16  17
ENDBRANCH  13  16
ENDBRANCH   8  10
ENDBRANCH   5   8
BRANCH   4  25
HETATM   25  C   LIG     1      65.073   2.293  78.252  1.00  0.00     0.024 A 
HETATM   26  C   LIG     1      66.471   2.190  78.334  1.00  0.00     0.033 A 
HETATM   27  C   LIG     1      67.314   2.768  77.383  1.00  0.00     0.159 A 
HETATM   28  C   LIG     1      66.773   3.475  76.304  1.00  0.00     0.126 A 
HETATM   29  F   LIG     1      68.640   2.634  77.528  1.00  0.00    -0.203 F 
HETATM   30  C   LIG     1      65.392   3.588  76.188  1.00  0.00     0.081 A 
HETATM   31  N   LIG     1      67.406   4.118  75.281  1.00  0.00    -0.229 NA
HETATM   32  N   LIG     1      65.202   4.324  75.020  1.00  0.00    -0.317 N 
HETATM   33  C   LIG     1      64.529   3.010  77.149  1.00  0.00     0.021 A 
HETATM   34  C   LIG     1      66.460   4.638  74.530  1.00  0.00     0.121 A 
HETATM   35  C   LIG     1      66.762   5.444  73.321  1.00  0.00     0.072 C 
BRANCH  32  36
HETATM   36  C   LIG     1      63.897   4.657  74.443  1.00  0.00     0.087 C 
HETATM   37  C   LIG     1      63.734   4.306  72.958  1.00  0.00     0.025 C 
HETATM   38  C   LIG     1      63.512   6.121  74.669  1.00  0.00     0.025 C 
ENDBRANCH  32  36
ENDBRANCH   4  25
TORSDOF 7
ENDMDL
MODEL 5
REMARK VINA RESULT:      -9.5     26.450     30.123
REMARK  7 active torsions:
REMARK  status: ('A' for Active; 'I' for Inactive)
REMARK    1  A    between atoms: C_4  and  C_25 
REMARK    2  A    between atoms: C_5  and  N_8 
REMARK    3  A    between atoms: N_8  and  C_10 
REMARK    4  A    between atoms: C_13  and  C_16 
REMARK    5  A    between atoms: C_16  and  N_17 
REMARK    6  A    between atoms: N_20  and  C_23 
REMARK    7  A    between atoms: N_28  and  C_36 
ROOT
HETATM    1  F   LIG     1      62.483   3.401  79.083  1.00  0.00    -0.201 F 
HETATM    2  N   LIG     1      64.446   0.369  79.116  1.00  0.00    -0.059 NA
HETATM    3  N   LIG     1      64.042   1.073  81.334  1.00  0.00    -0.057 NA
HETATM    4  C   LIG     1      63.763   1.421  78.612  1.00  0.00     0.129 A 
HETATM    5  C   LIG     1      64.566   0.205  80.451  1.00  0.00     0.729 A 
HETATM    6  C   LIG     1      63.184   2.337  79.476  1.00  0.00     0.178 A 
HETATM    7  C   LIG     1      63.354   2.111  80.823  1.00  0.00     0.149 A 
ENDROOT
BRANCH   5   8
HETATM    8  N   LIG     1      65.255  -0.885  80.955  1.00  0.00    -0.170 N 
HETATM    9  H   LIG     1      66.258  -0.772  80.917  1.00  0.00     0.186 HD
BRANCH   8  10
HETATM   10  C   LIG     1      64.839  -2.205  81.097  1.00  0.00     0.156 A 
HETATM   11  C   LIG     1      65.680  -3.274  80.800  1.00  0.00     0.037 A 
HETATM   12  C   LIG     1      65.270  -4.578  81.036  1.00  0.00     0.002 A 
HETATM   13  C   LIG     1      63.991  -4.811  81.523  1.00  0.00     0.030 A 
HETATM   14  C   LIG     1      63.184  -3.700  81.735  1.00  0.00     0.098 A 
HETATM   15  N   LIG     1      63.579  -2.416  81.533  1.00  0.00    -0.227 NA
BRANCH  13  16
HETATM   16  C   LIG     1      63.526  -6.218  81.785  1.00  0.00     0.278 C 
BRANCH  16  17
HETATM   17  N   LIG     1      62.639  -6.771  80.748  1.00  0.00     0.146 N 
HETATM   18  C   LIG     1      61.972  -7.995  81.250  1.00  0.00     0.286 C 
HETATM   19  C   LIG     1      62.896  -9.235  81.361  1.00  0.00     0.285 C 
HETATM   20  N   LIG     1      63.648  -9.574  80.135  1.00  0.00     0.141 N 
HETATM   21  C   LIG     1      64.293  -8.345  79.612  1.00  0.00     0.285 C 
HETATM   22  C   LIG     1      63.351  -7.120  79.498  1.00  0.00     0.286 C 
BRANCH  20  23
HETATM   23  C   LIG     1      62.817 -10.201  79.092  1.00  0.00     0.251 C 
HETATM   24  C   LIG     1      63.611 -10.782  77.925  1.00  0.00     0.037 C 
ENDBRANCH  20  23
ENDBRANCH  16  17
ENDBRANCH  13  16
ENDBRANCH   8  10
ENDBRANCH   5   8
BRANCH   4  25
HETATM   25  C   LIG     1      63.689   1.467  77.114  1.00  0.00     0.024 A 
HETATM   26  C   LIG     1      63.361   0.325  76.366  1.00  0.00     0.033 A 
HETATM   27  C   LIG     1      63.295   0.347  74.971  1.00  0.00     0.159 A 
HETATM   28  C   LIG     1      63.558   1.531  74.275  1.00  0.00     0.126 A 
HETATM   29  F   LIG     1      62.981  -0.783  74.322  1.00  0.00    -0.203 F 
HETATM   30  C   LIG     1      63.877   2.682  74.986  1.00  0.00     0.081 A 
HETATM   31  N   LIG     1      63.560   1.768  72.932  1.00  0.00    -0.229 NA
HETATM   32  N   LIG     1      64.059   3.655  74.007  1.00  0.00    -0.317 N 
HETATM   33  C   LIG     1      63.951   2.670  76.400  1.00  0.00     0.021 A 
HETATM   34  C   LIG     1      63.878   3.035  72.781  1.00  0.00     0.121 A 
HETATM   35  C   LIG     1      64.009   3.664  71.443  1.00  0.00     0.072 C 
BRANCH  32  36
HETATM   36  C   LIG     1      64.358   5.065  74.271  1.00  0.00     0.087 C 
HETATM   37  C   LIG     1      65.702   5.327  74.964  1.00  0.00     0.025 C 
HETATM   38  C   LIG     1      63.239   5.768  75.042  1.00  0.00     0.025 C 
ENDBRANCH  32  36
ENDBRANCH   4  25
TORSDOF 7
ENDMDL
MODEL 6
REMARK VINA RESULT:      -9.5      4.880     10.845
REMARK  7 active torsions:
REMARK  status: ('A' for Active; 'I' for Inactive)
REMARK    1  A    between atoms: C_4  and  C_25 
REMARK    2  A    between atoms: C_5  and  N_8 
REMARK    3  A    between atoms: N_8  and  C_10 
REMARK    4  A    between atoms: C_13  and  C_16 
REMARK    5  A    between atoms: C_16  and  N_17 
REMARK    6  A    between atoms: N_20  and  C_23 
REMARK    7  A    between atoms: N_28  and  C_36 
ROOT
HETATM    1  F   LIG     1      56.358  -9.853  59.217  1.00  0.00    -0.201 F 
HETATM    2  N   LIG     1      54.300 -11.902  57.068  1.00  0.00    -0.059 NA
HETATM    3  N   LIG     1      53.354 -11.827  59.229  1.00  0.00    -0.057 NA
HETATM    4  C   LIG     1      55.331 -11.113  57.445  1.00  0.00     0.129 A 
HETATM    5  C   LIG     1      53.334 -12.236  57.949  1.00  0.00     0.729 A 
HETATM    6  C   LIG     1      55.392 -10.644  58.748  1.00  0.00     0.178 A 
HETATM    7  C   LIG     1      54.377 -11.031  59.592  1.00  0.00     0.149 A 
ENDROOT
BRANCH   5   8
HETATM    8  N   LIG     1      52.275 -13.033  57.547  1.00  0.00    -0.170 N 
HETATM    9  H   LIG     1      51.374 -12.603  57.701  1.00  0.00     0.186 HD
BRANCH   8  10
HETATM   10  C   LIG     1      52.222 -14.413  57.379  1.00  0.00     0.156 A 
HETATM   11  C   LIG     1      53.236 -15.247  57.843  1.00  0.00     0.037 A 
HETATM   12  C   LIG     1      53.115 -16.625  57.743  1.00  0.00     0.002 A 
HETATM   13  C   LIG     1      51.995 -17.166  57.126  1.00  0.00     0.030 A 
HETATM   14  C   LIG     1      51.054 -16.272  56.629  1.00  0.00     0.098 A 
HETATM   15  N   LIG     1      51.146 -14.921  56.742  1.00  0.00    -0.227 NA
BRANCH  13  16
HETATM   16  C   LIG     1      51.844 -18.659  57.006  1.00  0.00     0.278 C 
BRANCH  16  17
HETATM   17  N   LIG     1      53.028 -19.426  57.426  1.00  0.00     0.146 N 
HETATM   18  C   LIG     1      53.537 -20.235  56.292  1.00  0.00     0.286 C 
HETATM   19  C   LIG     1      52.660 -21.461  55.928  1.00  0.00     0.285 C 
HETATM   20  N   LIG     1      52.344 -22.366  57.053  1.00  0.00     0.141 N 
HETATM   21  C   LIG     1      51.863 -21.559  58.200  1.00  0.00     0.285 C 
HETATM   22  C   LIG     1      52.758 -20.344  58.554  1.00  0.00     0.286 C 
BRANCH  20  23
HETATM   23  C   LIG     1      53.479 -23.212  57.461  1.00  0.00     0.251 C 
HETATM   24  C   LIG     1      53.119 -24.296  58.473  1.00  0.00     0.037 C 
ENDBRANCH  20  23
ENDBRANCH  16  17
ENDBRANCH  13  16
ENDBRANCH   8  10
ENDBRANCH   5   8
BRANCH   4  25
HETATM   25  C   LIG     1      56.319 -10.803  56.359  1.00  0.00     0.024 A 
HETATM   26  C   LIG     1      56.797 -11.806  55.501  1.00  0.00     0.033 A 
HETATM   27  C   LIG     1      57.724 -11.538  54.491  1.00  0.00     0.159 A 
HETATM   28  C   LIG     1      58.204 -10.237  54.307  1.00  0.00     0.126 A 
HETATM   29  F   LIG     1      58.140 -12.546  53.713  1.00  0.00    -0.203 F 
HETATM   30  C   LIG     1      57.744  -9.219  55.135  1.00  0.00     0.081 A 
HETATM   31  N   LIG     1      59.107  -9.764  53.402  1.00  0.00    -0.229 NA
HETATM   32  N   LIG     1      58.400  -8.079  54.677  1.00  0.00    -0.317 N 
HETATM   33  C   LIG     1      56.809  -9.481  56.164  1.00  0.00     0.021 A 
HETATM   34  C   LIG     1      59.232  -8.477  53.642  1.00  0.00     0.121 A 
HETATM   35  C   LIG     1      60.158  -7.613  52.868  1.00  0.00     0.072 C 
BRANCH  32  36
HETATM   36  C   LIG     1      58.198  -6.727  55.205  1.00  0.00     0.087 C 
HETATM   37  C   LIG     1      57.858  -5.662  54.154  1.00  0.00     0.025 C 
HETATM   38  C   LIG     1      59.375  -6.247  56.057  1.00  0.00     0.025 C 
ENDBRANCH  32  36
ENDBRANCH   4  25
TORSDOF 7
ENDMDL
MODEL 7
REMARK VINA RESULT:      -9.4     30.279     33.486
REMARK  7 active torsions:
REMARK  status: ('A' for Active; 'I' for Inactive)
REMARK    1  A    between atoms: C_4  and  C_25 
REMARK    2  A    between atoms: C_5  and  N_8 
REMARK    3  A    between atoms: N_8  and  C_10 
REMARK    4  A    between atoms: C_13  and  C_16 
REMARK    5  A    between atoms: C_16  and  N_17 
REMARK    6  A    between atoms: N_20  and  C_23 
REMARK    7  A    between atoms: N_28  and  C_36 
ROOT
HETATM    1  F   LIG     1      65.593   0.344  80.044  1.00  0.00    -0.201 F 
HETATM    2  N   LIG     1      63.016   2.794  79.406  1.00  0.00    -0.059 NA
HETATM    3  N   LIG     1      62.314   1.339  81.128  1.00  0.00    -0.057 NA
HETATM    4  C   LIG     1      64.190   2.138  79.272  1.00  0.00     0.129 A 
HETATM    5  C   LIG     1      62.110   2.398  80.325  1.00  0.00     0.729 A 
HETATM    6  C   LIG     1      64.463   1.051  80.088  1.00  0.00     0.178 A 
HETATM    7  C   LIG     1      63.492   0.701  80.997  1.00  0.00     0.149 A 
ENDROOT
BRANCH   5   8
HETATM    8  N   LIG     1      60.917   3.087  80.463  1.00  0.00    -0.170 N 
HETATM    9  H   LIG     1      60.316   3.004  79.655  1.00  0.00     0.186 HD
BRANCH   8  10
HETATM   10  C   LIG     1      60.607   4.160  81.292  1.00  0.00     0.156 A 
HETATM   11  C   LIG     1      59.793   5.205  80.863  1.00  0.00     0.037 A 
HETATM   12  C   LIG     1      59.427   6.217  81.739  1.00  0.00     0.002 A 
HETATM   13  C   LIG     1      59.923   6.206  83.035  1.00  0.00     0.030 A 
HETATM   14  C   LIG     1      60.781   5.167  83.374  1.00  0.00     0.098 A 
HETATM   15  N   LIG     1      61.129   4.156  82.536  1.00  0.00    -0.227 NA
BRANCH  13  16
HETATM   16  C   LIG     1      59.539   7.294  84.002  1.00  0.00     0.278 C 
BRANCH  16  17
HETATM   17  N   LIG     1      58.455   6.931  84.929  1.00  0.00     0.146 N 
HETATM   18  C   LIG     1      57.219   7.671  84.582  1.00  0.00     0.286 C 
HETATM   19  C   LIG     1      57.248   9.180  84.938  1.00  0.00     0.285 C 
HETATM   20  N   LIG     1      57.609   9.491  86.337  1.00  0.00     0.141 N 
HETATM   21  C   LIG     1      58.829   8.728  86.699  1.00  0.00     0.285 C 
HETATM   22  C   LIG     1      58.777   7.221  86.344  1.00  0.00     0.286 C 
BRANCH  20  23
HETATM   23  C   LIG     1      56.527   9.214  87.297  1.00  0.00     0.251 C 
HETATM   24  C   LIG     1      56.867   9.569  88.742  1.00  0.00     0.037 C 
ENDBRANCH  20  23
ENDBRANCH  16  17
ENDBRANCH  13  16
ENDBRANCH   8  10
ENDBRANCH   5   8
BRANCH   4  25
HETATM   25  C   LIG     1      65.112   2.699  78.229  1.00  0.00     0.024 A 
HETATM   26  C   LIG     1      66.467   2.337  78.183  1.00  0.00     0.033 A 
HETATM   27  C   LIG     1      67.341   2.855  77.226  1.00  0.00     0.159 A 
HETATM   28  C   LIG     1      66.875   3.762  76.269  1.00  0.00     0.126 A 
HETATM   29  F   LIG     1      68.624   2.468  77.246  1.00  0.00    -0.203 F 
HETATM   30  C   LIG     1      65.536   4.135  76.280  1.00  0.00     0.081 A 
HETATM   31  N   LIG     1      67.550   4.390  75.264  1.00  0.00    -0.229 NA
HETATM   32  N   LIG     1      65.413   5.018  75.210  1.00  0.00    -0.317 N 
HETATM   33  C   LIG     1      64.643   3.619  77.250  1.00  0.00     0.021 A 
HETATM   34  C   LIG     1      66.673   5.152  74.648  1.00  0.00     0.121 A 
HETATM   35  C   LIG     1      67.043   6.019  73.502  1.00  0.00     0.072 C 
BRANCH  32  36
HETATM   36  C   LIG     1      64.160   5.643  74.778  1.00  0.00     0.087 C 
HETATM   37  C   LIG     1      63.418   6.432  75.865  1.00  0.00     0.025 C 
HETATM   38  C   LIG     1      63.201   4.645  74.125  1.00  0.00     0.025 C 
ENDBRANCH  32  36
ENDBRANCH   4  25
TORSDOF 7
ENDMDL
MODEL 8
REMARK VINA RESULT:      -9.1     27.536     29.678
REMARK  7 active torsions:
REMARK  status: ('A' for Active; 'I' for Inactive)
REMARK    1  A    between atoms: C_4  and  C_25 
REMARK    2  A    between atoms: C_5  and  N_8 
REMARK    3  A    between atoms: N_8  and  C_10 
REMARK    4  A    between atoms: C_13  and  C_16 
REMARK    5  A    between atoms: C_16  and  N_17 
REMARK    6  A    between atoms: N_20  and  C_23 
REMARK    7  A    between atoms: N_28  and  C_36 
ROOT
HETATM    1  F   LIG     1      65.298  -1.701  82.385  1.00  0.00    -0.201 F 
HETATM    2  N   LIG     1      63.660  -2.454  79.254  1.00  0.00    -0.059 NA
HETATM    3  N   LIG     1      65.253  -0.743  78.921  1.00  0.00    -0.057 NA
HETATM    4  C   LIG     1      63.951  -2.528  80.572  1.00  0.00     0.129 A 
HETATM    5  C   LIG     1      64.312  -1.583  78.455  1.00  0.00     0.729 A 
HETATM    6  C   LIG     1      64.928  -1.700  81.103  1.00  0.00     0.178 A 
HETATM    7  C   LIG     1      65.545  -0.833  80.232  1.00  0.00     0.149 A 
ENDROOT
BRANCH   5   8
HETATM    8  N   LIG     1      64.015  -1.527  77.104  1.00  0.00    -0.170 N 
HETATM    9  H   LIG     1      64.017  -2.434  76.660  1.00  0.00     0.186 HD
BRANCH   8  10
HETATM   10  C   LIG     1      64.133  -0.462  76.216  1.00  0.00     0.156 A 
HETATM   11  C   LIG     1      63.152  -0.188  75.268  1.00  0.00     0.037 A 
HETATM   12  C   LIG     1      63.252   0.933  74.456  1.00  0.00     0.002 A 
HETATM   13  C   LIG     1      64.368   1.752  74.562  1.00  0.00     0.030 A 
HETATM   14  C   LIG     1      65.338   1.381  75.485  1.00  0.00     0.098 A 
HETATM   15  N   LIG     1      65.243   0.301  76.305  1.00  0.00    -0.227 NA
BRANCH  13  16
HETATM   16  C   LIG     1      64.497   2.972  73.691  1.00  0.00     0.278 C 
BRANCH  16  17
HETATM   17  N   LIG     1      65.685   3.797  73.968  1.00  0.00     0.146 N 
HETATM   18  C   LIG     1      65.280   5.196  74.242  1.00  0.00     0.286 C 
HETATM   19  C   LIG     1      64.810   5.988  72.994  1.00  0.00     0.285 C 
HETATM   20  N   LIG     1      65.749   5.981  71.853  1.00  0.00     0.141 N 
HETATM   21  C   LIG     1      66.181   4.586  71.594  1.00  0.00     0.285 C 
HETATM   22  C   LIG     1      66.656   3.814  72.851  1.00  0.00     0.286 C 
BRANCH  20  23
HETATM   23  C   LIG     1      66.921   6.852  72.052  1.00  0.00     0.251 C 
HETATM   24  C   LIG     1      66.710   7.960  73.080  1.00  0.00     0.037 C 
ENDBRANCH  20  23
ENDBRANCH  16  17
ENDBRANCH  13  16
ENDBRANCH   8  10
ENDBRANCH   5   8
BRANCH   4  25
HETATM   25  C   LIG     1      63.168  -3.554  81.336  1.00  0.00     0.024 A 
HETATM   26  C   LIG     1      63.659  -4.856  81.521  1.00  0.00     0.033 A 
HETATM   27  C   LIG     1      62.941  -5.828  82.221  1.00  0.00     0.159 A 
HETATM   28  C   LIG     1      61.691  -5.517  82.767  1.00  0.00     0.126 A 
HETATM   29  F   LIG     1      63.470  -7.052  82.355  1.00  0.00    -0.203 F 
HETATM   30  C   LIG     1      61.179  -4.234  82.610  1.00  0.00     0.081 A 
HETATM   31  N   LIG     1      60.828  -6.307  83.469  1.00  0.00    -0.229 NA
HETATM   32  N   LIG     1      59.954  -4.266  83.272  1.00  0.00    -0.317 N 
HETATM   33  C   LIG     1      61.898  -3.244  81.897  1.00  0.00     0.021 A 
HETATM   34  C   LIG     1      59.786  -5.556  83.751  1.00  0.00     0.121 A 
HETATM   35  C   LIG     1      58.611  -6.078  84.492  1.00  0.00     0.072 C 
BRANCH  32  36
HETATM   36  C   LIG     1      59.057  -3.118  83.432  1.00  0.00     0.087 C 
HETATM   37  C   LIG     1      58.100  -2.872  82.258  1.00  0.00     0.025 C 
HETATM   38  C   LIG     1      59.809  -1.827  83.759  1.00  0.00     0.025 C 
ENDBRANCH  32  36
ENDBRANCH   4  25
TORSDOF 7
ENDMDL
MODEL 9
REMARK VINA RESULT:      -9.0      2.321      3.223
REMARK  7 active torsions:
REMARK  status: ('A' for Active; 'I' for Inactive)
REMARK    1  A    between atoms: C_4  and  C_25 
REMARK    2  A    between atoms: C_5  and  N_8 
REMARK    3  A    between atoms: N_8  and  C_10 
REMARK    4  A    between atoms: C_13  and  C_16 
REMARK    5  A    between atoms: C_16  and  N_17 
REMARK    6  A    between atoms: N_20  and  C_23 
REMARK    7  A    between atoms: N_28  and  C_36 
ROOT
HETATM    1  F   LIG     1      57.003 -13.681  53.051  1.00  0.00    -0.201 F 
HETATM    2  N   LIG     1      54.591 -13.563  55.737  1.00  0.00    -0.059 NA
HETATM    3  N   LIG     1      55.511 -11.414  55.407  1.00  0.00    -0.057 NA
HETATM    4  C   LIG     1      55.351 -14.087  54.750  1.00  0.00     0.129 A 
HETATM    5  C   LIG     1      54.672 -12.250  56.042  1.00  0.00     0.729 A 
HETATM    6  C   LIG     1      56.219 -13.266  54.047  1.00  0.00     0.178 A 
HETATM    7  C   LIG     1      56.255 -11.942  54.417  1.00  0.00     0.149 A 
ENDROOT
BRANCH   5   8
HETATM    8  N   LIG     1      53.877 -11.722  57.045  1.00  0.00    -0.170 N 
HETATM    9  H   LIG     1      54.213 -11.940  57.973  1.00  0.00     0.186 HD
BRANCH   8  10
HETATM   10  C   LIG     1      52.542 -11.334  57.003  1.00  0.00     0.156 A 
HETATM   11  C   LIG     1      51.642 -11.698  58.000  1.00  0.00     0.037 A 
HETATM   12  C   LIG     1      50.338 -11.222  57.980  1.00  0.00     0.002 A 
HETATM   13  C   LIG     1      49.924 -10.421  56.924  1.00  0.00     0.030 A 
HETATM   14  C   LIG     1      50.858 -10.152  55.931  1.00  0.00     0.098 A 
HETATM   15  N   LIG     1      52.144 -10.589  55.950  1.00  0.00    -0.227 NA
BRANCH  13  16
HETATM   16  C   LIG     1      48.514  -9.895  56.882  1.00  0.00     0.278 C 
BRANCH  16  17
HETATM   17  N   LIG     1      47.836 -10.072  55.587  1.00  0.00     0.146 N 
HETATM   18  C   LIG     1      46.883  -8.961  55.356  1.00  0.00     0.286 C 
HETATM   19  C   LIG     1      45.602  -9.017  56.228  1.00  0.00     0.285 C 
HETATM   20  N   LIG     1      44.861 -10.295  56.179  1.00  0.00     0.141 N 
HETATM   21  C   LIG     1      45.816 -11.412  56.378  1.00  0.00     0.285 C 
HETATM   22  C   LIG     1      47.085 -11.343  55.492  1.00  0.00     0.286 C 
BRANCH  20  23
HETATM   23  C   LIG     1      44.104 -10.485  54.929  1.00  0.00     0.251 C 
HETATM   24  C   LIG     1      43.015 -11.551  55.014  1.00  0.00     0.037 C 
ENDBRANCH  20  23
ENDBRANCH  16  17
ENDBRANCH  13  16
ENDBRANCH   8  10
ENDBRANCH   5   8
BRANCH   4  25
HETATM   25  C   LIG     1      55.142 -15.552  54.502  1.00  0.00     0.024 A 
HETATM   26  C   LIG     1      55.920 -16.251  53.565  1.00  0.00     0.033 A 
HETATM   27  C   LIG     1      55.734 -17.612  53.315  1.00  0.00     0.159 A 
HETATM   28  C   LIG     1      54.751 -18.324  54.008  1.00  0.00     0.126 A 
HETATM   29  F   LIG     1      56.511 -18.212  52.403  1.00  0.00    -0.203 F 
HETATM   30  C   LIG     1      53.968 -17.665  54.950  1.00  0.00     0.081 A 
HETATM   31  N   LIG     1      54.398 -19.638  53.912  1.00  0.00    -0.229 NA
HETATM   32  N   LIG     1      53.121 -18.651  55.449  1.00  0.00    -0.317 N 
HETATM   33  C   LIG     1      54.145 -16.284  55.207  1.00  0.00     0.021 A 
HETATM   34  C   LIG     1      53.412 -19.820  54.763  1.00  0.00     0.121 A 
HETATM   35  C   LIG     1      52.739 -21.133  54.927  1.00  0.00     0.072 C 
BRANCH  32  36
HETATM   36  C   LIG     1      52.139 -18.450  56.518  1.00  0.00     0.087 C 
HETATM   37  C   LIG     1      51.049 -17.415  56.214  1.00  0.00     0.025 C 
HETATM   38  C   LIG     1      52.793 -18.126  57.862  1.00  0.00     0.025 C 
ENDBRANCH  32  36
ENDBRANCH   4  25
TORSDOF 7
ENDMDL
