MODEL 1
REMARK VINA RESULT:     -13.7      0.000      0.000
REMARK  7 active torsions:
REMARK  status: ('A' for Active; 'I' for Inactive)
REMARK    1  A    between atoms: N_5  and  C_12 
REMARK    2  A    between atoms: N_6  and  C_13 
REMARK       I    between atoms: N_6  and  C_22 
REMARK    3  A    between atoms: N_7  and  C_19 
REMARK    4  A    between atoms: N_7  and  C_30 
REMARK    5  A    between atoms: C_14  and  C_26 
REMARK    6  A    between atoms: C_18  and  C_22 
REMARK    7  A    between atoms: C_32  and  C_33 
ROOT
HETATM    1  C   LIG     1       7.427  -2.627  19.563  1.00  0.00     0.034 A 
HETATM    2  C   LIG     1       9.345  -4.130  19.826  1.00  0.00     0.056 A 
HETATM    3  C   LIG     1       8.462  -5.227  19.826  1.00  0.00    -0.035 A 
HETATM    4  C   LIG     1       8.808  -2.842  19.681  1.00  0.00     0.047 A 
HETATM    5  C   LIG     1       6.561  -3.719  19.575  1.00  0.00     0.018 A 
HETATM    6  C   LIG     1       7.075  -5.010  19.710  1.00  0.00     0.010 A 
HETATM    7  C   LIG     1       8.960  -6.634  20.017  1.00  0.00     0.050 C 
ENDROOT
BRANCH   1   8
HETATM    8  C   LIG     1       6.886  -1.247  19.411  1.00  0.00     0.256 C 
HETATM    9  O   LIG     1       7.367  -0.342  20.101  1.00  0.00    -0.267 OA
HETATM   10  N   LIG     1       5.906  -1.105  18.443  1.00  0.00    -0.323 N 
HETATM   11  H   LIG     1       5.742  -1.903  17.835  1.00  0.00     0.169 HD
BRANCH  10  12
HETATM   12  C   LIG     1       5.227   0.075  18.087  1.00  0.00     0.037 A 
HETATM   13  C   LIG     1       5.882   1.257  17.746  1.00  0.00     0.059 A 
HETATM   14  C   LIG     1       5.151   2.410  17.428  1.00  0.00     0.042 A 
HETATM   15  C   LIG     1       3.750   2.378  17.440  1.00  0.00     0.046 A 
HETATM   16  C   LIG     1       3.077   1.186  17.762  1.00  0.00     0.052 A 
HETATM   17  C   LIG     1       3.829   0.047  18.102  1.00  0.00     0.046 A 
BRANCH  14  18
HETATM   18  N   LIG     1       5.849   3.601  17.096  1.00  0.00    -0.315 N 
HETATM   19  C   LIG     1       6.558   3.841  15.940  1.00  0.00     0.125 A 
HETATM   20  C   LIG     1       7.057   5.119  16.052  1.00  0.00     0.048 A 
HETATM   21  N   LIG     1       6.691   5.669  17.254  1.00  0.00    -0.247 NA
HETATM   22  C   LIG     1       7.865   5.873  15.068  1.00  0.00     0.072 C 
HETATM   23  C   LIG     1       5.967   4.745  17.851  1.00  0.00     0.214 A 
ENDBRANCH  14  18
BRANCH  16  24
HETATM   24  C   LIG     1       1.571   1.100  17.738  1.00  0.00     0.417 C 
HETATM   25  F   LIG     1       1.100  -0.171  17.592  1.00  0.00    -0.166 F 
HETATM   26  F   LIG     1       1.028   1.817  16.715  1.00  0.00    -0.166 F 
HETATM   27  F   LIG     1       0.996   1.580  18.875  1.00  0.00    -0.166 F 
ENDBRANCH  16  24
ENDBRANCH  10  12
ENDBRANCH   1   8
BRANCH   2  28
HETATM   28  N   LIG     1      10.725  -4.306  20.026  1.00  0.00    -0.188 N 
HETATM   29  H   LIG     1      11.006  -4.789  20.866  1.00  0.00     0.184 HD
BRANCH  28  30
HETATM   30  C   LIG     1      11.770  -4.254  19.104  1.00  0.00     0.727 A 
HETATM   31  N   LIG     1      12.741  -5.183  19.142  1.00  0.00    -0.062 NA
HETATM   32  C   LIG     1      13.698  -5.156  18.191  1.00  0.00     0.089 A 
HETATM   33  C   LIG     1      13.716  -4.181  17.216  1.00  0.00     0.053 A 
HETATM   34  C   LIG     1      12.701  -3.259  17.264  1.00  0.00     0.139 A 
HETATM   35  N   LIG     1      11.714  -3.285  18.178  1.00  0.00    -0.075 NA
BRANCH  32  36
HETATM   36  C   LIG     1      14.714  -6.215  18.278  1.00  0.00     0.011 A 
HETATM   37  C   LIG     1      14.425  -7.561  18.005  1.00  0.00     0.017 A 
HETATM   38  C   LIG     1      15.420  -8.534  18.085  1.00  0.00     0.020 A 
HETATM   39  C   LIG     1      16.697  -8.140  18.437  1.00  0.00     0.116 A 
HETATM   40  N   LIG     1      17.031  -6.863  18.708  1.00  0.00    -0.272 NA
HETATM   41  C   LIG     1      16.039  -5.938  18.626  1.00  0.00     0.130 A 
ENDBRANCH  32  36
ENDBRANCH  28  30
ENDBRANCH   2  28
TORSDOF 7
ENDMDL
MODEL 2
REMARK VINA RESULT:     -13.6      4.351     11.443
REMARK  7 active torsions:
REMARK  status: ('A' for Active; 'I' for Inactive)
REMARK    1  A    between atoms: N_5  and  C_12 
REMARK    2  A    between atoms: N_6  and  C_13 
REMARK       I    between atoms: N_6  and  C_22 
REMARK    3  A    between atoms: N_7  and  C_19 
REMARK    4  A    between atoms: N_7  and  C_30 
REMARK    5  A    between atoms: C_14  and  C_26 
REMARK    6  A    between atoms: C_18  and  C_22 
REMARK    7  A    between atoms: C_32  and  C_33 
ROOT
HETATM    1  C   LIG     1       7.481  -3.281  19.563  1.00  0.00     0.034 A 
HETATM    2  C   LIG     1       5.515  -1.857  19.219  1.00  0.00     0.056 A 
HETATM    3  C   LIG     1       5.329  -1.808  20.614  1.00  0.00    -0.035 A 
HETATM    4  C   LIG     1       6.602  -2.587  18.717  1.00  0.00     0.047 A 
HETATM    5  C   LIG     1       7.281  -3.235  20.942  1.00  0.00     0.018 A 
HETATM    6  C   LIG     1       6.210  -2.506  21.463  1.00  0.00     0.010 A 
HETATM    7  C   LIG     1       4.164  -1.078  21.224  1.00  0.00     0.050 C 
ENDROOT
BRANCH   1   8
HETATM    8  C   LIG     1       8.626  -4.049  19.000  1.00  0.00     0.256 C 
HETATM    9  O   LIG     1       8.450  -4.703  17.967  1.00  0.00    -0.267 OA
HETATM   10  N   LIG     1       9.821  -3.903  19.683  1.00  0.00    -0.323 N 
HETATM   11  H   LIG     1       9.852  -3.192  20.409  1.00  0.00     0.169 HD
BRANCH  10  12
HETATM   12  C   LIG     1      11.056  -4.505  19.376  1.00  0.00     0.037 A 
HETATM   13  C   LIG     1      11.424  -5.766  19.843  1.00  0.00     0.059 A 
HETATM   14  C   LIG     1      12.680  -6.303  19.529  1.00  0.00     0.042 A 
HETATM   15  C   LIG     1      13.573  -5.576  18.729  1.00  0.00     0.046 A 
HETATM   16  C   LIG     1      13.206  -4.313  18.234  1.00  0.00     0.052 A 
HETATM   17  C   LIG     1      11.950  -3.782  18.582  1.00  0.00     0.046 A 
BRANCH  14  18
HETATM   18  N   LIG     1      13.028  -7.585  20.029  1.00  0.00    -0.315 N 
HETATM   19  C   LIG     1      12.162  -8.612  20.329  1.00  0.00     0.125 A 
HETATM   20  C   LIG     1      12.941  -9.656  20.775  1.00  0.00     0.048 A 
HETATM   21  N   LIG     1      14.264  -9.296  20.776  1.00  0.00    -0.247 NA
HETATM   22  C   LIG     1      12.504 -11.005  21.198  1.00  0.00     0.072 C 
HETATM   23  C   LIG     1      14.287  -8.061  20.321  1.00  0.00     0.214 A 
ENDBRANCH  14  18
BRANCH  16  24
HETATM   24  C   LIG     1      14.120  -3.522  17.331  1.00  0.00     0.417 C 
HETATM   25  F   LIG     1      15.392  -3.411  17.807  1.00  0.00    -0.166 F 
HETATM   26  F   LIG     1      13.681  -2.246  17.142  1.00  0.00    -0.166 F 
HETATM   27  F   LIG     1      14.234  -4.065  16.088  1.00  0.00    -0.166 F 
ENDBRANCH  16  24
ENDBRANCH  10  12
ENDBRANCH   1   8
BRANCH   2  28
HETATM   28  N   LIG     1       4.606  -1.243  18.342  1.00  0.00    -0.188 N 
HETATM   29  H   LIG     1       3.865  -1.821  17.973  1.00  0.00     0.184 HD
BRANCH  28  30
HETATM   30  C   LIG     1       4.321   0.110  18.161  1.00  0.00     0.727 A 
HETATM   31  N   LIG     1       5.271   0.935  17.688  1.00  0.00    -0.062 NA
HETATM   32  C   LIG     1       4.947   2.224  17.448  1.00  0.00     0.089 A 
HETATM   33  C   LIG     1       3.683   2.709  17.713  1.00  0.00     0.053 A 
HETATM   34  C   LIG     1       2.782   1.804  18.216  1.00  0.00     0.139 A 
HETATM   35  N   LIG     1       3.068   0.507  18.428  1.00  0.00    -0.075 NA
BRANCH  32  36
HETATM   36  C   LIG     1       6.027   3.064  16.909  1.00  0.00     0.011 A 
HETATM   37  C   LIG     1       7.032   2.554  16.073  1.00  0.00     0.017 A 
HETATM   38  C   LIG     1       8.031   3.386  15.570  1.00  0.00     0.020 A 
HETATM   39  C   LIG     1       8.004   4.725  15.913  1.00  0.00     0.116 A 
HETATM   40  N   LIG     1       7.063   5.268  16.710  1.00  0.00    -0.272 NA
HETATM   41  C   LIG     1       6.106   4.431  17.188  1.00  0.00     0.130 A 
ENDBRANCH  32  36
ENDBRANCH  28  30
ENDBRANCH   2  28
TORSDOF 7
ENDMDL
MODEL 3
REMARK VINA RESULT:     -13.5      4.519     12.321
REMARK  7 active torsions:
REMARK  status: ('A' for Active; 'I' for Inactive)
REMARK    1  A    between atoms: N_5  and  C_12 
REMARK    2  A    between atoms: N_6  and  C_13 
REMARK       I    between atoms: N_6  and  C_22 
REMARK    3  A    between atoms: N_7  and  C_19 
REMARK    4  A    between atoms: N_7  and  C_30 
REMARK    5  A    between atoms: C_14  and  C_26 
REMARK    6  A    between atoms: C_18  and  C_22 
REMARK    7  A    between atoms: C_32  and  C_33 
ROOT
HETATM    1  C   LIG     1       7.595  -3.375  19.611  1.00  0.00     0.034 A 
HETATM    2  C   LIG     1       5.564  -2.043  19.277  1.00  0.00     0.056 A 
HETATM    3  C   LIG     1       5.442  -1.912  20.675  1.00  0.00    -0.035 A 
HETATM    4  C   LIG     1       6.652  -2.766  18.768  1.00  0.00     0.047 A 
HETATM    5  C   LIG     1       7.459  -3.248  20.993  1.00  0.00     0.018 A 
HETATM    6  C   LIG     1       6.387  -2.525  21.520  1.00  0.00     0.010 A 
HETATM    7  C   LIG     1       4.281  -1.185  21.295  1.00  0.00     0.050 C 
ENDROOT
BRANCH   1   8
HETATM    8  C   LIG     1       8.740  -4.138  19.041  1.00  0.00     0.256 C 
HETATM    9  O   LIG     1       8.557  -4.804  18.017  1.00  0.00    -0.267 OA
HETATM   10  N   LIG     1       9.943  -3.974  19.707  1.00  0.00    -0.323 N 
HETATM   11  H   LIG     1       9.976  -3.255  20.425  1.00  0.00     0.169 HD
BRANCH  10  12
HETATM   12  C   LIG     1      11.179  -4.567  19.390  1.00  0.00     0.037 A 
HETATM   13  C   LIG     1      11.566  -5.819  19.867  1.00  0.00     0.059 A 
HETATM   14  C   LIG     1      12.823  -6.347  19.541  1.00  0.00     0.042 A 
HETATM   15  C   LIG     1      13.697  -5.621  18.720  1.00  0.00     0.046 A 
HETATM   16  C   LIG     1      13.310  -4.369  18.215  1.00  0.00     0.052 A 
HETATM   17  C   LIG     1      12.054  -3.845  18.574  1.00  0.00     0.046 A 
BRANCH  14  18
HETATM   18  N   LIG     1      13.192  -7.619  20.053  1.00  0.00    -0.315 N 
HETATM   19  C   LIG     1      12.342  -8.658  20.359  1.00  0.00     0.125 A 
HETATM   20  C   LIG     1      13.137  -9.685  20.815  1.00  0.00     0.048 A 
HETATM   21  N   LIG     1      14.454  -9.303  20.817  1.00  0.00    -0.247 NA
HETATM   22  C   LIG     1      12.721 -11.038  21.247  1.00  0.00     0.072 C 
HETATM   23  C   LIG     1      14.457  -8.071  20.352  1.00  0.00     0.214 A 
ENDBRANCH  14  18
BRANCH  16  24
HETATM   24  C   LIG     1      14.203  -3.580  17.289  1.00  0.00     0.417 C 
HETATM   25  F   LIG     1      15.525  -3.651  17.615  1.00  0.00    -0.166 F 
HETATM   26  F   LIG     1      13.894  -2.253  17.278  1.00  0.00    -0.166 F 
HETATM   27  F   LIG     1      14.117  -3.992  15.994  1.00  0.00    -0.166 F 
ENDBRANCH  16  24
ENDBRANCH  10  12
ENDBRANCH   1   8
BRANCH   2  28
HETATM   28  N   LIG     1       4.592  -1.517  18.410  1.00  0.00    -0.188 N 
HETATM   29  H   LIG     1       3.798  -2.105  18.204  1.00  0.00     0.184 HD
BRANCH  28  30
HETATM   30  C   LIG     1       4.339  -0.192  18.059  1.00  0.00     0.727 A 
HETATM   31  N   LIG     1       3.088   0.188  17.742  1.00  0.00    -0.062 NA
HETATM   32  C   LIG     1       2.856   1.492  17.481  1.00  0.00     0.089 A 
HETATM   33  C   LIG     1       3.874   2.422  17.500  1.00  0.00     0.053 A 
HETATM   34  C   LIG     1       5.123   1.945  17.811  1.00  0.00     0.139 A 
HETATM   35  N   LIG     1       5.375   0.658  18.111  1.00  0.00    -0.075 NA
BRANCH  32  36
HETATM   36  C   LIG     1       1.463   1.841  17.166  1.00  0.00     0.011 A 
HETATM   37  C   LIG     1       0.507   0.878  16.809  1.00  0.00     0.017 A 
HETATM   38  C   LIG     1      -0.808   1.247  16.531  1.00  0.00     0.020 A 
HETATM   39  C   LIG     1      -1.147   2.585  16.618  1.00  0.00     0.116 A 
HETATM   40  N   LIG     1      -0.271   3.551  16.957  1.00  0.00    -0.272 NA
HETATM   41  C   LIG     1       1.004   3.160  17.218  1.00  0.00     0.130 A 
ENDBRANCH  32  36
ENDBRANCH  28  30
ENDBRANCH   2  28
TORSDOF 7
ENDMDL
MODEL 4
REMARK VINA RESULT:     -13.1      4.277     11.860
REMARK  7 active torsions:
REMARK  status: ('A' for Active; 'I' for Inactive)
REMARK    1  A    between atoms: N_5  and  C_12 
REMARK    2  A    between atoms: N_6  and  C_13 
REMARK       I    between atoms: N_6  and  C_22 
REMARK    3  A    between atoms: N_7  and  C_19 
REMARK    4  A    between atoms: N_7  and  C_30 
REMARK    5  A    between atoms: C_14  and  C_26 
REMARK    6  A    between atoms: C_18  and  C_22 
REMARK    7  A    between atoms: C_32  and  C_33 
ROOT
HETATM    1  C   LIG     1       6.541  -1.139  19.466  1.00  0.00     0.034 A 
HETATM    2  C   LIG     1       5.445   0.414  17.918  1.00  0.00     0.056 A 
HETATM    3  C   LIG     1       4.296   0.386  18.733  1.00  0.00    -0.035 A 
HETATM    4  C   LIG     1       6.558  -0.345  18.309  1.00  0.00     0.047 A 
HETATM    5  C   LIG     1       5.396  -1.168  20.259  1.00  0.00     0.018 A 
HETATM    6  C   LIG     1       4.280  -0.413  19.893  1.00  0.00     0.010 A 
HETATM    7  C   LIG     1       3.051   1.142  18.358  1.00  0.00     0.050 C 
ENDROOT
BRANCH   1   8
HETATM    8  C   LIG     1       7.739  -1.935  19.855  1.00  0.00     0.256 C 
HETATM    9  O   LIG     1       8.427  -1.546  20.804  1.00  0.00    -0.267 OA
HETATM   10  N   LIG     1       7.933  -3.095  19.124  1.00  0.00    -0.323 N 
HETATM   11  H   LIG     1       7.185  -3.373  18.495  1.00  0.00     0.169 HD
BRANCH  10  12
HETATM   12  C   LIG     1       8.973  -4.031  19.275  1.00  0.00     0.037 A 
HETATM   13  C   LIG     1       8.776  -5.310  19.796  1.00  0.00     0.059 A 
HETATM   14  C   LIG     1       9.857  -6.190  19.950  1.00  0.00     0.042 A 
HETATM   15  C   LIG     1      11.146  -5.792  19.569  1.00  0.00     0.046 A 
HETATM   16  C   LIG     1      11.354  -4.514  19.023  1.00  0.00     0.052 A 
HETATM   17  C   LIG     1      10.261  -3.637  18.900  1.00  0.00     0.046 A 
BRANCH  14  18
HETATM   18  N   LIG     1       9.624  -7.480  20.494  1.00  0.00    -0.315 N 
HETATM   19  C   LIG     1      10.569  -8.332  21.019  1.00  0.00     0.125 A 
HETATM   20  C   LIG     1       9.890  -9.459  21.427  1.00  0.00     0.048 A 
HETATM   21  N   LIG     1       8.552  -9.333  21.150  1.00  0.00    -0.247 NA
HETATM   22  C   LIG     1      10.436 -10.665  22.086  1.00  0.00     0.072 C 
HETATM   23  C   LIG     1       8.423  -8.144  20.601  1.00  0.00     0.214 A 
ENDBRANCH  14  18
BRANCH  16  24
HETATM   24  C   LIG     1      12.718  -4.067  18.557  1.00  0.00     0.417 C 
HETATM   25  F   LIG     1      13.170  -4.746  17.465  1.00  0.00    -0.166 F 
HETATM   26  F   LIG     1      13.671  -4.230  19.517  1.00  0.00    -0.166 F 
HETATM   27  F   LIG     1      12.755  -2.749  18.217  1.00  0.00    -0.166 F 
ENDBRANCH  16  24
ENDBRANCH  10  12
ENDBRANCH   1   8
BRANCH   2  28
HETATM   28  N   LIG     1       5.464   1.133  16.712  1.00  0.00    -0.188 N 
HETATM   29  H   LIG     1       4.760   0.897  16.028  1.00  0.00     0.184 HD
BRANCH  28  30
HETATM   30  C   LIG     1       6.052   2.363  16.419  1.00  0.00     0.727 A 
HETATM   31  N   LIG     1       5.357   3.498  16.609  1.00  0.00    -0.062 NA
HETATM   32  C   LIG     1       5.976   4.678  16.392  1.00  0.00     0.089 A 
HETATM   33  C   LIG     1       7.281   4.735  15.951  1.00  0.00     0.053 A 
HETATM   34  C   LIG     1       7.909   3.530  15.761  1.00  0.00     0.139 A 
HETATM   35  N   LIG     1       7.328   2.341  16.005  1.00  0.00    -0.075 NA
BRANCH  32  36
HETATM   36  C   LIG     1       5.165   5.879  16.643  1.00  0.00     0.011 A 
HETATM   37  C   LIG     1       5.224   7.013  15.819  1.00  0.00     0.017 A 
HETATM   38  C   LIG     1       4.428   8.127  16.081  1.00  0.00     0.020 A 
HETATM   39  C   LIG     1       3.579   8.085  17.171  1.00  0.00     0.116 A 
HETATM   40  N   LIG     1       3.481   7.023  17.994  1.00  0.00    -0.272 NA
HETATM   41  C   LIG     1       4.272   5.954  17.715  1.00  0.00     0.130 A 
ENDBRANCH  32  36
ENDBRANCH  28  30
ENDBRANCH   2  28
TORSDOF 7
ENDMDL
MODEL 5
REMARK VINA RESULT:     -13.1      4.360      7.825
REMARK  7 active torsions:
REMARK  status: ('A' for Active; 'I' for Inactive)
REMARK    1  A    between atoms: N_5  and  C_12 
REMARK    2  A    between atoms: N_6  and  C_13 
REMARK       I    between atoms: N_6  and  C_22 
REMARK    3  A    between atoms: N_7  and  C_19 
REMARK    4  A    between atoms: N_7  and  C_30 
REMARK    5  A    between atoms: C_14  and  C_26 
REMARK    6  A    between atoms: C_18  and  C_22 
REMARK    7  A    between atoms: C_32  and  C_33 
ROOT
HETATM    1  C   LIG     1      14.315  -3.965  17.916  1.00  0.00     0.034 A 
HETATM    2  C   LIG     1      16.388  -5.240  18.209  1.00  0.00     0.056 A 
HETATM    3  C   LIG     1      17.125  -4.076  17.910  1.00  0.00    -0.035 A 
HETATM    4  C   LIG     1      14.988  -5.158  18.218  1.00  0.00     0.047 A 
HETATM    5  C   LIG     1      15.053  -2.822  17.611  1.00  0.00     0.018 A 
HETATM    6  C   LIG     1      16.448  -2.879  17.604  1.00  0.00     0.010 A 
HETATM    7  C   LIG     1      18.627  -4.096  17.842  1.00  0.00     0.050 C 
ENDROOT
BRANCH   1   8
HETATM    8  C   LIG     1      12.826  -3.910  17.933  1.00  0.00     0.256 C 
HETATM    9  O   LIG     1      12.243  -3.359  16.995  1.00  0.00    -0.267 OA
HETATM   10  N   LIG     1      12.230  -4.550  19.006  1.00  0.00    -0.323 N 
HETATM   11  H   LIG     1      12.834  -5.110  19.601  1.00  0.00     0.169 HD
BRANCH  10  12
HETATM   12  C   LIG     1      10.852  -4.657  19.274  1.00  0.00     0.037 A 
HETATM   13  C   LIG     1       9.979  -3.571  19.213  1.00  0.00     0.059 A 
HETATM   14  C   LIG     1       8.620  -3.733  19.519  1.00  0.00     0.042 A 
HETATM   15  C   LIG     1       8.128  -4.995  19.878  1.00  0.00     0.046 A 
HETATM   16  C   LIG     1       8.993  -6.101  19.922  1.00  0.00     0.052 A 
HETATM   17  C   LIG     1      10.358  -5.913  19.635  1.00  0.00     0.046 A 
BRANCH  14  18
HETATM   18  N   LIG     1       7.760  -2.605  19.459  1.00  0.00    -0.315 N 
HETATM   19  C   LIG     1       6.499  -2.563  18.908  1.00  0.00     0.125 A 
HETATM   20  C   LIG     1       6.045  -1.275  19.081  1.00  0.00     0.048 A 
HETATM   21  N   LIG     1       6.999  -0.514  19.707  1.00  0.00    -0.247 NA
HETATM   22  C   LIG     1       4.734  -0.710  18.693  1.00  0.00     0.072 C 
HETATM   23  C   LIG     1       8.006  -1.334  19.926  1.00  0.00     0.214 A 
ENDBRANCH  14  18
BRANCH  16  24
HETATM   24  C   LIG     1       8.491  -7.484  20.256  1.00  0.00     0.417 C 
HETATM   25  F   LIG     1       7.170  -7.518  20.590  1.00  0.00    -0.166 F 
HETATM   26  F   LIG     1       9.155  -8.034  21.312  1.00  0.00    -0.166 F 
HETATM   27  F   LIG     1       8.637  -8.363  19.227  1.00  0.00    -0.166 F 
ENDBRANCH  16  24
ENDBRANCH  10  12
ENDBRANCH   1   8
BRANCH   2  28
HETATM   28  N   LIG     1      17.030  -6.469  18.434  1.00  0.00    -0.188 N 
HETATM   29  H   LIG     1      17.962  -6.572  18.061  1.00  0.00     0.184 HD
BRANCH  28  30
HETATM   30  C   LIG     1      16.761  -7.451  19.386  1.00  0.00     0.727 A 
HETATM   31  N   LIG     1      15.505  -7.908  19.537  1.00  0.00    -0.062 NA
HETATM   32  C   LIG     1      15.285  -8.914  20.411  1.00  0.00     0.089 A 
HETATM   33  C   LIG     1      16.308  -9.446  21.167  1.00  0.00     0.053 A 
HETATM   34  C   LIG     1      17.553  -8.906  20.967  1.00  0.00     0.139 A 
HETATM   35  N   LIG     1      17.807  -7.930  20.076  1.00  0.00    -0.075 NA
BRANCH  32  36
HETATM   36  C   LIG     1      13.894  -9.381  20.508  1.00  0.00     0.011 A 
HETATM   37  C   LIG     1      12.899  -8.978  19.605  1.00  0.00     0.017 A 
HETATM   38  C   LIG     1      11.595  -9.455  19.722  1.00  0.00     0.020 A 
HETATM   39  C   LIG     1      11.307 -10.335  20.748  1.00  0.00     0.116 A 
HETATM   40  N   LIG     1      12.223 -10.756  21.643  1.00  0.00    -0.272 NA
HETATM   41  C   LIG     1      13.484 -10.271  21.505  1.00  0.00     0.130 A 
ENDBRANCH  32  36
ENDBRANCH  28  30
ENDBRANCH   2  28
TORSDOF 7
ENDMDL
MODEL 6
REMARK VINA RESULT:     -13.0      4.663     11.857
REMARK  7 active torsions:
REMARK  status: ('A' for Active; 'I' for Inactive)
REMARK    1  A    between atoms: N_5  and  C_12 
REMARK    2  A    between atoms: N_6  and  C_13 
REMARK       I    between atoms: N_6  and  C_22 
REMARK    3  A    between atoms: N_7  and  C_19 
REMARK    4  A    between atoms: N_7  and  C_30 
REMARK    5  A    between atoms: C_14  and  C_26 
REMARK    6  A    between atoms: C_18  and  C_22 
REMARK    7  A    between atoms: C_32  and  C_33 
ROOT
HETATM    1  C   LIG     1       7.595  -3.435  19.607  1.00  0.00     0.034 A 
HETATM    2  C   LIG     1       5.600  -2.058  19.236  1.00  0.00     0.056 A 
HETATM    3  C   LIG     1       5.471  -1.903  20.631  1.00  0.00    -0.035 A 
HETATM    4  C   LIG     1       6.674  -2.815  18.747  1.00  0.00     0.047 A 
HETATM    5  C   LIG     1       7.451  -3.284  20.985  1.00  0.00     0.018 A 
HETATM    6  C   LIG     1       6.394  -2.527  21.493  1.00  0.00     0.010 A 
HETATM    7  C   LIG     1       4.323  -1.139  21.231  1.00  0.00     0.050 C 
ENDROOT
BRANCH   1   8
HETATM    8  C   LIG     1       8.725  -4.234  19.056  1.00  0.00     0.256 C 
HETATM    9  O   LIG     1       8.615  -4.715  17.924  1.00  0.00    -0.267 OA
HETATM   10  N   LIG     1       9.839  -4.313  19.875  1.00  0.00    -0.323 N 
HETATM   11  H   LIG     1       9.847  -3.718  20.699  1.00  0.00     0.169 HD
BRANCH  10  12
HETATM   12  C   LIG     1      11.041  -4.995  19.611  1.00  0.00     0.037 A 
HETATM   13  C   LIG     1      12.156  -4.378  19.043  1.00  0.00     0.059 A 
HETATM   14  C   LIG     1      13.318  -5.116  18.776  1.00  0.00     0.042 A 
HETATM   15  C   LIG     1      13.370  -6.481  19.091  1.00  0.00     0.046 A 
HETATM   16  C   LIG     1      12.261  -7.108  19.683  1.00  0.00     0.052 A 
HETATM   17  C   LIG     1      11.096  -6.356  19.920  1.00  0.00     0.046 A 
BRANCH  14  18
HETATM   18  N   LIG     1      14.431  -4.461  18.187  1.00  0.00    -0.315 N 
HETATM   19  C   LIG     1      15.693  -4.984  18.012  1.00  0.00     0.125 A 
HETATM   20  C   LIG     1      16.437  -4.000  17.400  1.00  0.00     0.048 A 
HETATM   21  N   LIG     1      15.674  -2.877  17.208  1.00  0.00    -0.247 NA
HETATM   22  C   LIG     1      17.850  -4.062  16.965  1.00  0.00     0.072 C 
HETATM   23  C   LIG     1      14.483  -3.183  17.679  1.00  0.00     0.214 A 
ENDBRANCH  14  18
BRANCH  16  24
HETATM   24  C   LIG     1      12.297  -8.564  20.081  1.00  0.00     0.417 C 
HETATM   25  F   LIG     1      11.082  -9.177  20.016  1.00  0.00    -0.166 F 
HETATM   26  F   LIG     1      12.733  -8.739  21.361  1.00  0.00    -0.166 F 
HETATM   27  F   LIG     1      13.130  -9.305  19.300  1.00  0.00    -0.166 F 
ENDBRANCH  16  24
ENDBRANCH  10  12
ENDBRANCH   1   8
BRANCH   2  28
HETATM   28  N   LIG     1       4.648  -1.520  18.354  1.00  0.00    -0.188 N 
HETATM   29  H   LIG     1       3.885  -2.123  18.084  1.00  0.00     0.184 HD
BRANCH  28  30
HETATM   30  C   LIG     1       4.364  -0.188  18.058  1.00  0.00     0.727 A 
HETATM   31  N   LIG     1       3.111   0.169  17.724  1.00  0.00    -0.062 NA
HETATM   32  C   LIG     1       2.846   1.477  17.518  1.00  0.00     0.089 A 
HETATM   33  C   LIG     1       3.835   2.434  17.608  1.00  0.00     0.053 A 
HETATM   34  C   LIG     1       5.089   1.980  17.931  1.00  0.00     0.139 A 
HETATM   35  N   LIG     1       5.372   0.689  18.178  1.00  0.00    -0.075 NA
BRANCH  32  36
HETATM   36  C   LIG     1       1.452   1.799  17.181  1.00  0.00     0.011 A 
HETATM   37  C   LIG     1       0.514   0.816  16.831  1.00  0.00     0.017 A 
HETATM   38  C   LIG     1      -0.803   1.160  16.532  1.00  0.00     0.020 A 
HETATM   39  C   LIG     1      -1.162   2.494  16.591  1.00  0.00     0.116 A 
HETATM   40  N   LIG     1      -0.304   3.479  16.922  1.00  0.00    -0.272 NA
HETATM   41  C   LIG     1       0.973   3.112  17.204  1.00  0.00     0.130 A 
ENDBRANCH  32  36
ENDBRANCH  28  30
ENDBRANCH   2  28
TORSDOF 7
ENDMDL
MODEL 7
REMARK VINA RESULT:     -12.9      7.151     12.193
REMARK  7 active torsions:
REMARK  status: ('A' for Active; 'I' for Inactive)
REMARK    1  A    between atoms: N_5  and  C_12 
REMARK    2  A    between atoms: N_6  and  C_13 
REMARK       I    between atoms: N_6  and  C_22 
REMARK    3  A    between atoms: N_7  and  C_19 
REMARK    4  A    between atoms: N_7  and  C_30 
REMARK    5  A    between atoms: C_14  and  C_26 
REMARK    6  A    between atoms: C_18  and  C_22 
REMARK    7  A    between atoms: C_32  and  C_33 
ROOT
HETATM    1  C   LIG     1      12.296  -9.095  20.698  1.00  0.00     0.034 A 
HETATM    2  C   LIG     1      10.012  -8.258  20.393  1.00  0.00     0.056 A 
HETATM    3  C   LIG     1       9.528  -9.368  21.113  1.00  0.00    -0.035 A 
HETATM    4  C   LIG     1      11.397  -8.135  20.208  1.00  0.00     0.047 A 
HETATM    5  C   LIG     1      11.806 -10.195  21.401  1.00  0.00     0.018 A 
HETATM    6  C   LIG     1      10.431 -10.331  21.603  1.00  0.00     0.010 A 
HETATM    7  C   LIG     1       8.055  -9.588  21.317  1.00  0.00     0.050 C 
ENDROOT
BRANCH   1   8
HETATM    8  C   LIG     1      13.762  -8.937  20.486  1.00  0.00     0.256 C 
HETATM    9  O   LIG     1      14.524  -9.787  20.956  1.00  0.00    -0.267 OA
HETATM   10  N   LIG     1      14.127  -7.849  19.712  1.00  0.00    -0.323 N 
HETATM   11  H   LIG     1      13.378  -7.342  19.248  1.00  0.00     0.169 HD
BRANCH  10  12
HETATM   12  C   LIG     1      15.431  -7.461  19.351  1.00  0.00     0.037 A 
HETATM   13  C   LIG     1      15.713  -6.269  18.684  1.00  0.00     0.059 A 
HETATM   14  C   LIG     1      17.030  -5.950  18.324  1.00  0.00     0.042 A 
HETATM   15  C   LIG     1      18.076  -6.825  18.644  1.00  0.00     0.046 A 
HETATM   16  C   LIG     1      17.808  -8.019  19.335  1.00  0.00     0.052 A 
HETATM   17  C   LIG     1      16.477  -8.333  19.665  1.00  0.00     0.046 A 
BRANCH  14  18
HETATM   18  N   LIG     1      17.281  -4.734  17.635  1.00  0.00    -0.315 N 
HETATM   19  C   LIG     1      18.482  -4.328  17.099  1.00  0.00     0.125 A 
HETATM   20  C   LIG     1      18.254  -3.096  16.529  1.00  0.00     0.048 A 
HETATM   21  N   LIG     1      16.948  -2.721  16.714  1.00  0.00    -0.247 NA
HETATM   22  C   LIG     1      19.210  -2.239  15.793  1.00  0.00     0.072 C 
HETATM   23  C   LIG     1      16.392  -3.718  17.370  1.00  0.00     0.214 A 
ENDBRANCH  14  18
BRANCH  16  24
HETATM   24  C   LIG     1      18.914  -8.962  19.740  1.00  0.00     0.417 C 
HETATM   25  F   LIG     1      19.180  -9.921  18.809  1.00  0.00    -0.166 F 
HETATM   26  F   LIG     1      18.626  -9.632  20.892  1.00  0.00    -0.166 F 
HETATM   27  F   LIG     1      20.096  -8.325  19.966  1.00  0.00    -0.166 F 
ENDBRANCH  16  24
ENDBRANCH  10  12
ENDBRANCH   1   8
BRANCH   2  28
HETATM   28  N   LIG     1       9.133  -7.325  19.818  1.00  0.00    -0.188 N 
HETATM   29  H   LIG     1       8.188  -7.635  19.643  1.00  0.00     0.184 HD
BRANCH  28  30
HETATM   30  C   LIG     1       9.219  -5.934  19.772  1.00  0.00     0.727 A 
HETATM   31  N   LIG     1       8.096  -5.196  19.730  1.00  0.00    -0.062 NA
HETATM   32  C   LIG     1       8.206  -3.850  19.765  1.00  0.00     0.089 A 
HETATM   33  C   LIG     1       9.437  -3.230  19.805  1.00  0.00     0.053 A 
HETATM   34  C   LIG     1      10.531  -4.058  19.822  1.00  0.00     0.139 A 
HETATM   35  N   LIG     1      10.449  -5.401  19.826  1.00  0.00    -0.075 NA
BRANCH  32  36
HETATM   36  C   LIG     1       6.938  -3.106  19.741  1.00  0.00     0.011 A 
HETATM   37  C   LIG     1       6.146  -3.004  18.588  1.00  0.00     0.017 A 
HETATM   38  C   LIG     1       4.942  -2.301  18.609  1.00  0.00     0.020 A 
HETATM   39  C   LIG     1       4.549  -1.710  19.795  1.00  0.00     0.116 A 
HETATM   40  N   LIG     1       5.269  -1.776  20.932  1.00  0.00    -0.272 NA
HETATM   41  C   LIG     1       6.439  -2.465  20.878  1.00  0.00     0.130 A 
ENDBRANCH  32  36
ENDBRANCH  28  30
ENDBRANCH   2  28
TORSDOF 7
ENDMDL
MODEL 8
REMARK VINA RESULT:     -12.8      6.477     10.834
REMARK  7 active torsions:
REMARK  status: ('A' for Active; 'I' for Inactive)
REMARK    1  A    between atoms: N_5  and  C_12 
REMARK    2  A    between atoms: N_6  and  C_13 
REMARK       I    between atoms: N_6  and  C_22 
REMARK    3  A    between atoms: N_7  and  C_19 
REMARK    4  A    between atoms: N_7  and  C_30 
REMARK    5  A    between atoms: C_14  and  C_26 
REMARK    6  A    between atoms: C_18  and  C_22 
REMARK    7  A    between atoms: C_32  and  C_33 
ROOT
HETATM    1  C   LIG     1      16.677  -7.465  18.936  1.00  0.00     0.034 A 
HETATM    2  C   LIG     1      18.538  -5.874  19.059  1.00  0.00     0.056 A 
HETATM    3  C   LIG     1      19.435  -6.958  19.137  1.00  0.00    -0.035 A 
HETATM    4  C   LIG     1      17.168  -6.150  18.947  1.00  0.00     0.047 A 
HETATM    5  C   LIG     1      17.572  -8.530  19.024  1.00  0.00     0.018 A 
HETATM    6  C   LIG     1      18.941  -8.277  19.128  1.00  0.00     0.010 A 
HETATM    7  C   LIG     1      20.914  -6.741  19.299  1.00  0.00     0.050 C 
ENDROOT
BRANCH   1   8
HETATM    8  C   LIG     1      15.215  -7.726  18.816  1.00  0.00     0.256 C 
HETATM    9  O   LIG     1      14.791  -8.257  17.785  1.00  0.00    -0.267 OA
HETATM   10  N   LIG     1      14.467  -7.385  19.929  1.00  0.00    -0.323 N 
HETATM   11  H   LIG     1      14.980  -7.124  20.767  1.00  0.00     0.169 HD
BRANCH  10  12
HETATM   12  C   LIG     1      13.076  -7.523  20.094  1.00  0.00     0.037 A 
HETATM   13  C   LIG     1      12.187  -6.454  19.978  1.00  0.00     0.059 A 
HETATM   14  C   LIG     1      10.813  -6.646  20.182  1.00  0.00     0.042 A 
HETATM   15  C   LIG     1      10.322  -7.922  20.494  1.00  0.00     0.046 A 
HETATM   16  C   LIG     1      11.205  -9.010  20.592  1.00  0.00     0.052 A 
HETATM   17  C   LIG     1      12.582  -8.792  20.408  1.00  0.00     0.046 A 
BRANCH  14  18
HETATM   18  N   LIG     1       9.936  -5.536  20.068  1.00  0.00    -0.315 N 
HETATM   19  C   LIG     1      10.265  -4.210  20.236  1.00  0.00     0.125 A 
HETATM   20  C   LIG     1       9.107  -3.495  20.026  1.00  0.00     0.048 A 
HETATM   21  N   LIG     1       8.067  -4.345  19.750  1.00  0.00    -0.247 NA
HETATM   22  C   LIG     1       8.922  -2.028  20.057  1.00  0.00     0.072 C 
HETATM   23  C   LIG     1       8.591  -5.552  19.775  1.00  0.00     0.214 A 
ENDBRANCH  14  18
BRANCH  16  24
HETATM   24  C   LIG     1      10.708 -10.407  20.878  1.00  0.00     0.417 C 
HETATM   25  F   LIG     1      10.996 -10.841  22.137  1.00  0.00    -0.166 F 
HETATM   26  F   LIG     1      11.248 -11.330  20.033  1.00  0.00    -0.166 F 
HETATM   27  F   LIG     1       9.358 -10.525  20.743  1.00  0.00    -0.166 F 
ENDBRANCH  16  24
ENDBRANCH  10  12
ENDBRANCH   1   8
BRANCH   2  28
HETATM   28  N   LIG     1      18.991  -4.548  19.152  1.00  0.00    -0.188 N 
HETATM   29  H   LIG     1      19.454  -4.282  20.008  1.00  0.00     0.184 HD
BRANCH  28  30
HETATM   30  C   LIG     1      19.240  -3.621  18.140  1.00  0.00     0.727 A 
HETATM   31  N   LIG     1      20.491  -3.171  17.940  1.00  0.00    -0.062 NA
HETATM   32  C   LIG     1      20.718  -2.334  16.905  1.00  0.00     0.089 A 
HETATM   33  C   LIG     1      19.694  -1.912  16.083  1.00  0.00     0.053 A 
HETATM   34  C   LIG     1      18.445  -2.403  16.372  1.00  0.00     0.139 A 
HETATM   35  N   LIG     1      18.198  -3.266  17.374  1.00  0.00    -0.075 NA
BRANCH  32  36
HETATM   36  C   LIG     1      22.112  -1.900  16.729  1.00  0.00     0.011 A 
HETATM   37  C   LIG     1      23.170  -2.808  16.575  1.00  0.00     0.017 A 
HETATM   38  C   LIG     1      24.477  -2.357  16.396  1.00  0.00     0.020 A 
HETATM   39  C   LIG     1      24.703  -0.993  16.374  1.00  0.00     0.116 A 
HETATM   40  N   LIG     1      23.725  -0.077  16.516  1.00  0.00    -0.272 NA
HETATM   41  C   LIG     1      22.463  -0.548  16.692  1.00  0.00     0.130 A 
ENDBRANCH  32  36
ENDBRANCH  28  30
ENDBRANCH   2  28
TORSDOF 7
ENDMDL
MODEL 9
REMARK VINA RESULT:     -12.7      5.823      9.292
REMARK  7 active torsions:
REMARK  status: ('A' for Active; 'I' for Inactive)
REMARK    1  A    between atoms: N_5  and  C_12 
REMARK    2  A    between atoms: N_6  and  C_13 
REMARK       I    between atoms: N_6  and  C_22 
REMARK    3  A    between atoms: N_7  and  C_19 
REMARK    4  A    between atoms: N_7  and  C_30 
REMARK    5  A    between atoms: C_14  and  C_26 
REMARK    6  A    between atoms: C_18  and  C_22 
REMARK    7  A    between atoms: C_32  and  C_33 
ROOT
HETATM    1  C   LIG     1      15.453  -7.943  20.674  1.00  0.00     0.034 A 
HETATM    2  C   LIG     1      17.509  -7.500  19.413  1.00  0.00     0.056 A 
HETATM    3  C   LIG     1      18.076  -8.666  19.964  1.00  0.00    -0.035 A 
HETATM    4  C   LIG     1      16.195  -7.166  19.772  1.00  0.00     0.047 A 
HETATM    5  C   LIG     1      16.028  -9.089  21.222  1.00  0.00     0.018 A 
HETATM    6  C   LIG     1      17.332  -9.445  20.872  1.00  0.00     0.010 A 
HETATM    7  C   LIG     1      19.493  -9.068  19.659  1.00  0.00     0.050 C 
ENDROOT
BRANCH   1   8
HETATM    8  C   LIG     1      14.060  -7.561  21.036  1.00  0.00     0.256 C 
HETATM    9  O   LIG     1      13.870  -6.939  22.086  1.00  0.00    -0.267 OA
HETATM   10  N   LIG     1      13.097  -7.907  20.103  1.00  0.00    -0.323 N 
HETATM   11  H   LIG     1      13.429  -8.256  19.208  1.00  0.00     0.169 HD
BRANCH  10  12
HETATM   12  C   LIG     1      11.712  -7.670  20.182  1.00  0.00     0.037 A 
HETATM   13  C   LIG     1      11.138  -6.424  19.934  1.00  0.00     0.059 A 
HETATM   14  C   LIG     1       9.754  -6.240  20.058  1.00  0.00     0.042 A 
HETATM   15  C   LIG     1       8.933  -7.318  20.420  1.00  0.00     0.046 A 
HETATM   16  C   LIG     1       9.497  -8.584  20.651  1.00  0.00     0.052 A 
HETATM   17  C   LIG     1      10.891  -8.741  20.547  1.00  0.00     0.046 A 
BRANCH  14  18
HETATM   18  N   LIG     1       9.202  -4.956  19.810  1.00  0.00    -0.315 N 
HETATM   19  C   LIG     1       9.582  -3.772  20.400  1.00  0.00     0.125 A 
HETATM   20  C   LIG     1       8.782  -2.794  19.853  1.00  0.00     0.048 A 
HETATM   21  N   LIG     1       7.905  -3.344  18.955  1.00  0.00    -0.247 NA
HETATM   22  C   LIG     1       8.804  -1.339  20.125  1.00  0.00     0.072 C 
HETATM   23  C   LIG     1       8.182  -4.631  18.944  1.00  0.00     0.214 A 
ENDBRANCH  14  18
BRANCH  16  24
HETATM   24  C   LIG     1       8.641  -9.778  20.996  1.00  0.00     0.417 C 
HETATM   25  F   LIG     1       9.352 -10.929  21.158  1.00  0.00    -0.166 F 
HETATM   26  F   LIG     1       7.715 -10.046  20.032  1.00  0.00    -0.166 F 
HETATM   27  F   LIG     1       7.938  -9.609  22.150  1.00  0.00    -0.166 F 
ENDBRANCH  16  24
ENDBRANCH  10  12
ENDBRANCH   1   8
BRANCH   2  28
HETATM   28  N   LIG     1      18.253  -6.657  18.573  1.00  0.00    -0.188 N 
HETATM   29  H   LIG     1      19.105  -7.034  18.186  1.00  0.00     0.184 HD
BRANCH  28  30
HETATM   30  C   LIG     1      17.854  -5.512  17.883  1.00  0.00     0.727 A 
HETATM   31  N   LIG     1      16.576  -5.101  17.956  1.00  0.00    -0.062 NA
HETATM   32  C   LIG     1      16.234  -3.947  17.343  1.00  0.00     0.089 A 
HETATM   33  C   LIG     1      17.154  -3.214  16.624  1.00  0.00     0.053 A 
HETATM   34  C   LIG     1      18.430  -3.718  16.582  1.00  0.00     0.139 A 
HETATM   35  N   LIG     1      18.806  -4.844  17.215  1.00  0.00    -0.075 NA
BRANCH  32  36
HETATM   36  C   LIG     1      14.827  -3.544  17.483  1.00  0.00     0.011 A 
HETATM   37  C   LIG     1      13.802  -4.464  17.752  1.00  0.00     0.017 A 
HETATM   38  C   LIG     1      12.482  -4.040  17.892  1.00  0.00     0.020 A 
HETATM   39  C   LIG     1      12.208  -2.691  17.762  1.00  0.00     0.116 A 
HETATM   40  N   LIG     1      13.152  -1.764  17.505  1.00  0.00    -0.272 NA
HETATM   41  C   LIG     1      14.429  -2.209  17.370  1.00  0.00     0.130 A 
ENDBRANCH  32  36
ENDBRANCH  28  30
ENDBRANCH   2  28
TORSDOF 7
ENDMDL
