MODEL 1
REMARK VINA RESULT:     -10.0      0.000      0.000
REMARK  7 active torsions:
REMARK  status: ('A' for Active; 'I' for Inactive)
REMARK    1  A    between atoms: C_4  and  C_25 
REMARK    2  A    between atoms: C_5  and  N_8 
REMARK    3  A    between atoms: N_8  and  C_10 
REMARK    4  A    between atoms: C_13  and  C_16 
REMARK    5  A    between atoms: C_16  and  N_17 
REMARK    6  A    between atoms: N_20  and  C_23 
REMARK    7  A    between atoms: N_28  and  C_36 
ROOT
HETATM    1  F   LIG     1      -2.688   6.487   7.824  1.00  0.00    -0.201 F 
HETATM    2  N   LIG     1      -0.586   4.730  10.179  1.00  0.00    -0.059 NA
HETATM    3  N   LIG     1      -0.019   4.084   7.980  1.00  0.00    -0.057 NA
HETATM    4  C   LIG     1      -1.551   5.563   9.731  1.00  0.00     0.129 A 
HETATM    5  C   LIG     1       0.163   4.019   9.310  1.00  0.00     0.729 A 
HETATM    6  C   LIG     1      -1.770   5.687   8.368  1.00  0.00     0.178 A 
HETATM    7  C   LIG     1      -0.974   4.927   7.543  1.00  0.00     0.149 A 
ENDROOT
BRANCH   5   8
HETATM    8  N   LIG     1       1.159   3.179   9.780  1.00  0.00    -0.170 N 
HETATM    9  H   LIG     1       2.086   3.465   9.496  1.00  0.00     0.186 HD
BRANCH   8  10
HETATM   10  C   LIG     1       1.077   1.851  10.187  1.00  0.00     0.156 A 
HETATM   11  C   LIG     1       1.842   1.359  11.240  1.00  0.00     0.037 A 
HETATM   12  C   LIG     1       1.674   0.055  11.683  1.00  0.00     0.002 A 
HETATM   13  C   LIG     1       0.771  -0.773  11.030  1.00  0.00     0.030 A 
HETATM   14  C   LIG     1       0.089  -0.234   9.946  1.00  0.00     0.098 A 
HETATM   15  N   LIG     1       0.224   1.048   9.516  1.00  0.00    -0.227 NA
BRANCH  13  16
HETATM   16  C   LIG     1       0.573  -2.191  11.494  1.00  0.00     0.278 C 
BRANCH  16  17
HETATM   17  N   LIG     1       1.797  -3.010  11.489  1.00  0.00     0.146 N 
HETATM   18  C   LIG     1       2.249  -3.242  10.097  1.00  0.00     0.286 C 
HETATM   19  C   LIG     1       1.375  -4.239   9.292  1.00  0.00     0.285 C 
HETATM   20  N   LIG     1       1.150  -5.547   9.942  1.00  0.00     0.141 N 
HETATM   21  C   LIG     1       0.728  -5.321  11.345  1.00  0.00     0.285 C 
HETATM   22  C   LIG     1       1.619  -4.329  12.136  1.00  0.00     0.286 C 
BRANCH  20  23
HETATM   23  C   LIG     1       2.326  -6.434   9.897  1.00  0.00     0.251 C 
HETATM   24  C   LIG     1       2.152  -7.743  10.662  1.00  0.00     0.037 C 
ENDBRANCH  20  23
ENDBRANCH  16  17
ENDBRANCH  13  16
ENDBRANCH   8  10
ENDBRANCH   5   8
BRANCH   4  25
HETATM   25  C   LIG     1      -2.291   6.307  10.804  1.00  0.00     0.024 A 
HETATM   26  C   LIG     1      -1.728   7.429  11.433  1.00  0.00     0.033 A 
HETATM   27  C   LIG     1      -2.398   8.129  12.439  1.00  0.00     0.159 A 
HETATM   28  C   LIG     1      -3.671   7.720  12.849  1.00  0.00     0.126 A 
HETATM   29  F   LIG     1      -1.797   9.188  12.998  1.00  0.00    -0.203 F 
HETATM   30  C   LIG     1      -4.261   6.618  12.241  1.00  0.00     0.081 A 
HETATM   31  N   LIG     1      -4.486   8.246  13.808  1.00  0.00    -0.229 NA
HETATM   32  N   LIG     1      -5.501   6.501  12.864  1.00  0.00    -0.317 N 
HETATM   33  C   LIG     1      -3.588   5.899  11.223  1.00  0.00     0.021 A 
HETATM   34  C   LIG     1      -5.569   7.500  13.822  1.00  0.00     0.121 A 
HETATM   35  C   LIG     1      -6.689   7.748  14.764  1.00  0.00     0.072 C 
BRANCH  32  36
HETATM   36  C   LIG     1      -6.521   5.507  12.520  1.00  0.00     0.087 C 
HETATM   37  C   LIG     1      -6.081   4.045  12.667  1.00  0.00     0.025 C 
HETATM   38  C   LIG     1      -7.108   5.728  11.124  1.00  0.00     0.025 C 
ENDBRANCH  32  36
ENDBRANCH   4  25
TORSDOF 7
ENDMDL
MODEL 2
REMARK VINA RESULT:      -9.6      1.754      2.814
REMARK  7 active torsions:
REMARK  status: ('A' for Active; 'I' for Inactive)
REMARK    1  A    between atoms: C_4  and  C_25 
REMARK    2  A    between atoms: C_5  and  N_8 
REMARK    3  A    between atoms: N_8  and  C_10 
REMARK    4  A    between atoms: C_13  and  C_16 
REMARK    5  A    between atoms: C_16  and  N_17 
REMARK    6  A    between atoms: N_20  and  C_23 
REMARK    7  A    between atoms: N_28  and  C_36 
ROOT
HETATM    1  F   LIG     1      -2.657   6.058   7.611  1.00  0.00    -0.201 F 
HETATM    2  N   LIG     1      -0.416   4.645  10.067  1.00  0.00    -0.059 NA
HETATM    3  N   LIG     1       0.405   4.197   7.899  1.00  0.00    -0.057 NA
HETATM    4  C   LIG     1      -1.491   5.297   9.572  1.00  0.00     0.129 A 
HETATM    5  C   LIG     1       0.510   4.119   9.237  1.00  0.00     0.729 A 
HETATM    6  C   LIG     1      -1.641   5.426   8.200  1.00  0.00     0.178 A 
HETATM    7  C   LIG     1      -0.662   4.860   7.415  1.00  0.00     0.149 A 
ENDROOT
BRANCH   5   8
HETATM    8  N   LIG     1       1.615   3.466   9.756  1.00  0.00    -0.170 N 
HETATM    9  H   LIG     1       2.482   3.956   9.586  1.00  0.00     0.186 HD
BRANCH   8  10
HETATM   10  C   LIG     1       1.778   2.121  10.074  1.00  0.00     0.156 A 
HETATM   11  C   LIG     1       1.712   1.667  11.388  1.00  0.00     0.037 A 
HETATM   12  C   LIG     1       1.788   0.310  11.668  1.00  0.00     0.002 A 
HETATM   13  C   LIG     1       1.984  -0.589  10.627  1.00  0.00     0.030 A 
HETATM   14  C   LIG     1       2.105  -0.058   9.349  1.00  0.00     0.098 A 
HETATM   15  N   LIG     1       2.008   1.266   9.056  1.00  0.00    -0.227 NA
BRANCH  13  16
HETATM   16  C   LIG     1       2.070  -2.065  10.909  1.00  0.00     0.278 C 
BRANCH  16  17
HETATM   17  N   LIG     1       3.248  -2.728  10.326  1.00  0.00     0.146 N 
HETATM   18  C   LIG     1       2.819  -3.820   9.420  1.00  0.00     0.286 C 
HETATM   19  C   LIG     1       2.256  -5.073  10.139  1.00  0.00     0.285 C 
HETATM   20  N   LIG     1       3.128  -5.643  11.188  1.00  0.00     0.141 N 
HETATM   21  C   LIG     1       3.584  -4.549  12.080  1.00  0.00     0.285 C 
HETATM   22  C   LIG     1       4.152  -3.310  11.343  1.00  0.00     0.286 C 
BRANCH  20  23
HETATM   23  C   LIG     1       4.283  -6.383  10.653  1.00  0.00     0.251 C 
HETATM   24  C   LIG     1       5.288  -6.827  11.712  1.00  0.00     0.037 C 
ENDBRANCH  20  23
ENDBRANCH  16  17
ENDBRANCH  13  16
ENDBRANCH   8  10
ENDBRANCH   5   8
BRANCH   4  25
HETATM   25  C   LIG     1      -2.427   5.849  10.607  1.00  0.00     0.024 A 
HETATM   26  C   LIG     1      -3.727   5.343  10.758  1.00  0.00     0.033 A 
HETATM   27  C   LIG     1      -4.615   5.850  11.710  1.00  0.00     0.159 A 
HETATM   28  C   LIG     1      -4.218   6.894  12.551  1.00  0.00     0.126 A 
HETATM   29  F   LIG     1      -5.843   5.320  11.794  1.00  0.00    -0.203 F 
HETATM   30  C   LIG     1      -2.934   7.414  12.433  1.00  0.00     0.081 A 
HETATM   31  N   LIG     1      -4.920   7.538  13.528  1.00  0.00    -0.229 NA
HETATM   32  N   LIG     1      -2.871   8.405  13.409  1.00  0.00    -0.317 N 
HETATM   33  C   LIG     1      -2.028   6.909  11.469  1.00  0.00     0.021 A 
HETATM   34  C   LIG     1      -4.113   8.451  14.023  1.00  0.00     0.121 A 
HETATM   35  C   LIG     1      -4.534   9.379  15.101  1.00  0.00     0.072 C 
BRANCH  32  36
HETATM   36  C   LIG     1      -1.683   9.208  13.713  1.00  0.00     0.087 C 
HETATM   37  C   LIG     1      -1.134   9.046  15.136  1.00  0.00     0.025 C 
HETATM   38  C   LIG     1      -1.885  10.694  13.408  1.00  0.00     0.025 C 
ENDBRANCH  32  36
ENDBRANCH   4  25
TORSDOF 7
ENDMDL
MODEL 3
REMARK VINA RESULT:      -9.2      2.919     10.713
REMARK  7 active torsions:
REMARK  status: ('A' for Active; 'I' for Inactive)
REMARK    1  A    between atoms: C_4  and  C_25 
REMARK    2  A    between atoms: C_5  and  N_8 
REMARK    3  A    between atoms: N_8  and  C_10 
REMARK    4  A    between atoms: C_13  and  C_16 
REMARK    5  A    between atoms: C_16  and  N_17 
REMARK    6  A    between atoms: N_20  and  C_23 
REMARK    7  A    between atoms: N_28  and  C_36 
ROOT
HETATM    1  F   LIG     1       2.476   1.422   8.200  1.00  0.00    -0.201 F 
HETATM    2  N   LIG     1      -0.969   2.262   8.886  1.00  0.00    -0.059 NA
HETATM    3  N   LIG     1       0.253   4.235   8.455  1.00  0.00    -0.057 NA
HETATM    4  C   LIG     1       0.129   1.493   8.718  1.00  0.00     0.129 A 
HETATM    5  C   LIG     1      -0.896   3.602   8.745  1.00  0.00     0.729 A 
HETATM    6  C   LIG     1       1.339   2.089   8.397  1.00  0.00     0.178 A 
HETATM    7  C   LIG     1       1.339   3.460   8.276  1.00  0.00     0.149 A 
ENDROOT
BRANCH   5   8
HETATM    8  N   LIG     1      -2.032   4.378   8.905  1.00  0.00    -0.170 N 
HETATM    9  H   LIG     1      -2.507   4.571   8.034  1.00  0.00     0.186 HD
BRANCH   8  10
HETATM   10  C   LIG     1      -2.371   5.245   9.939  1.00  0.00     0.156 A 
HETATM   11  C   LIG     1      -1.542   6.299  10.313  1.00  0.00     0.037 A 
HETATM   12  C   LIG     1      -1.946   7.202  11.286  1.00  0.00     0.002 A 
HETATM   13  C   LIG     1      -3.165   7.014  11.923  1.00  0.00     0.030 A 
HETATM   14  C   LIG     1      -3.911   5.904  11.544  1.00  0.00     0.098 A 
HETATM   15  N   LIG     1      -3.541   5.025  10.576  1.00  0.00    -0.227 NA
BRANCH  13  16
HETATM   16  C   LIG     1      -3.623   7.981  12.981  1.00  0.00     0.278 C 
BRANCH  16  17
HETATM   17  N   LIG     1      -3.510   7.474  14.359  1.00  0.00     0.146 N 
HETATM   18  C   LIG     1      -4.128   8.433  15.305  1.00  0.00     0.286 C 
HETATM   19  C   LIG     1      -3.312   9.731  15.535  1.00  0.00     0.285 C 
HETATM   20  N   LIG     1      -1.900   9.529  15.920  1.00  0.00     0.141 N 
HETATM   21  C   LIG     1      -1.285   8.546  14.994  1.00  0.00     0.285 C 
HETATM   22  C   LIG     1      -2.111   7.251  14.786  1.00  0.00     0.286 C 
BRANCH  20  23
HETATM   23  C   LIG     1      -1.730   9.092  17.317  1.00  0.00     0.251 C 
HETATM   24  C   LIG     1      -0.288   8.772  17.702  1.00  0.00     0.037 C 
ENDBRANCH  20  23
ENDBRANCH  16  17
ENDBRANCH  13  16
ENDBRANCH   8  10
ENDBRANCH   5   8
BRANCH   4  25
HETATM   25  C   LIG     1      -0.100   0.019   8.882  1.00  0.00     0.024 A 
HETATM   26  C   LIG     1      -0.817  -0.718   7.926  1.00  0.00     0.033 A 
HETATM   27  C   LIG     1      -1.048  -2.088   8.065  1.00  0.00     0.159 A 
HETATM   28  C   LIG     1      -0.557  -2.771   9.183  1.00  0.00     0.126 A 
HETATM   29  F   LIG     1      -1.745  -2.726   7.115  1.00  0.00    -0.203 F 
HETATM   30  C   LIG     1       0.165  -2.073  10.145  1.00  0.00     0.081 A 
HETATM   31  N   LIG     1      -0.675  -4.088   9.519  1.00  0.00    -0.229 NA
HETATM   32  N   LIG     1       0.506  -3.038  11.089  1.00  0.00    -0.317 N 
HETATM   33  C   LIG     1       0.400  -0.683  10.015  1.00  0.00     0.021 A 
HETATM   34  C   LIG     1      -0.053  -4.234  10.668  1.00  0.00     0.121 A 
HETATM   35  C   LIG     1       0.012  -5.538  11.373  1.00  0.00     0.072 C 
BRANCH  32  36
HETATM   36  C   LIG     1       1.327  -2.793  12.278  1.00  0.00     0.087 C 
HETATM   37  C   LIG     1       0.730  -1.807  13.290  1.00  0.00     0.025 C 
HETATM   38  C   LIG     1       2.755  -2.366  11.928  1.00  0.00     0.025 C 
ENDBRANCH  32  36
ENDBRANCH   4  25
TORSDOF 7
ENDMDL
MODEL 4
REMARK VINA RESULT:      -8.9      3.098     10.494
REMARK  7 active torsions:
REMARK  status: ('A' for Active; 'I' for Inactive)
REMARK    1  A    between atoms: C_4  and  C_25 
REMARK    2  A    between atoms: C_5  and  N_8 
REMARK    3  A    between atoms: N_8  and  C_10 
REMARK    4  A    between atoms: C_13  and  C_16 
REMARK    5  A    between atoms: C_16  and  N_17 
REMARK    6  A    between atoms: N_20  and  C_23 
REMARK    7  A    between atoms: N_28  and  C_36 
ROOT
HETATM    1  F   LIG     1       2.587   1.838   8.055  1.00  0.00    -0.201 F 
HETATM    2  N   LIG     1      -0.650   2.584   9.474  1.00  0.00    -0.059 NA
HETATM    3  N   LIG     1      -0.008   4.325   8.014  1.00  0.00    -0.057 NA
HETATM    4  C   LIG     1       0.496   1.907   9.241  1.00  0.00     0.129 A 
HETATM    5  C   LIG     1      -0.888   3.762   8.859  1.00  0.00     0.729 A 
HETATM    6  C   LIG     1       1.432   2.430   8.362  1.00  0.00     0.178 A 
HETATM    7  C   LIG     1       1.125   3.637   7.777  1.00  0.00     0.149 A 
ENDROOT
BRANCH   5   8
HETATM    8  N   LIG     1      -2.073   4.439   9.095  1.00  0.00    -0.170 N 
HETATM    9  H   LIG     1      -2.653   4.522   8.272  1.00  0.00     0.186 HD
BRANCH   8  10
HETATM   10  C   LIG     1      -2.387   5.345  10.103  1.00  0.00     0.156 A 
HETATM   11  C   LIG     1      -1.536   6.395  10.435  1.00  0.00     0.037 A 
HETATM   12  C   LIG     1      -1.915   7.337  11.381  1.00  0.00     0.002 A 
HETATM   13  C   LIG     1      -3.132   7.192  12.034  1.00  0.00     0.030 A 
HETATM   14  C   LIG     1      -3.901   6.085  11.698  1.00  0.00     0.098 A 
HETATM   15  N   LIG     1      -3.555   5.168  10.756  1.00  0.00    -0.227 NA
BRANCH  13  16
HETATM   16  C   LIG     1      -3.562   8.202  13.064  1.00  0.00     0.278 C 
BRANCH  16  17
HETATM   17  N   LIG     1      -2.472   8.704  13.917  1.00  0.00     0.146 N 
HETATM   18  C   LIG     1      -2.154   7.712  14.972  1.00  0.00     0.286 C 
HETATM   19  C   LIG     1      -3.216   7.605  16.098  1.00  0.00     0.285 C 
HETATM   20  N   LIG     1      -3.582   8.883  16.743  1.00  0.00     0.141 N 
HETATM   21  C   LIG     1      -3.871   9.888  15.691  1.00  0.00     0.285 C 
HETATM   22  C   LIG     1      -2.795   9.987  14.580  1.00  0.00     0.286 C 
BRANCH  20  23
HETATM   23  C   LIG     1      -2.553   9.390  17.667  1.00  0.00     0.251 C 
HETATM   24  C   LIG     1      -2.007   8.342  18.632  1.00  0.00     0.037 C 
ENDBRANCH  20  23
ENDBRANCH  16  17
ENDBRANCH  13  16
ENDBRANCH   8  10
ENDBRANCH   5   8
BRANCH   4  25
HETATM   25  C   LIG     1       0.620   0.603   9.973  1.00  0.00     0.024 A 
HETATM   26  C   LIG     1       1.492   0.459  11.063  1.00  0.00     0.033 A 
HETATM   27  C   LIG     1       1.628  -0.749  11.751  1.00  0.00     0.159 A 
HETATM   28  C   LIG     1       0.879  -1.864  11.361  1.00  0.00     0.126 A 
HETATM   29  F   LIG     1       2.483  -0.814  12.780  1.00  0.00    -0.203 F 
HETATM   30  C   LIG     1      -0.000  -1.754  10.290  1.00  0.00     0.081 A 
HETATM   31  N   LIG     1       0.865  -3.126  11.879  1.00  0.00    -0.229 NA
HETATM   32  N   LIG     1      -0.578  -3.017  10.184  1.00  0.00    -0.317 N 
HETATM   33  C   LIG     1      -0.141  -0.535   9.583  1.00  0.00     0.021 A 
HETATM   34  C   LIG     1       0.005  -3.812  11.158  1.00  0.00     0.121 A 
HETATM   35  C   LIG     1      -0.266  -5.250  11.406  1.00  0.00     0.072 C 
BRANCH  32  36
HETATM   36  C   LIG     1      -1.623  -3.383   9.225  1.00  0.00     0.087 C 
HETATM   37  C   LIG     1      -1.508  -2.713   7.850  1.00  0.00     0.025 C 
HETATM   38  C   LIG     1      -3.032  -3.170   9.782  1.00  0.00     0.025 C 
ENDBRANCH  32  36
ENDBRANCH   4  25
TORSDOF 7
ENDMDL
MODEL 5
REMARK VINA RESULT:      -8.9      2.734     11.089
REMARK  7 active torsions:
REMARK  status: ('A' for Active; 'I' for Inactive)
REMARK    1  A    between atoms: C_4  and  C_25 
REMARK    2  A    between atoms: C_5  and  N_8 
REMARK    3  A    between atoms: N_8  and  C_10 
REMARK    4  A    between atoms: C_13  and  C_16 
REMARK    5  A    between atoms: C_16  and  N_17 
REMARK    6  A    between atoms: N_20  and  C_23 
REMARK    7  A    between atoms: N_28  and  C_36 
ROOT
HETATM    1  F   LIG     1       2.577   1.335   8.199  1.00  0.00    -0.201 F 
HETATM    2  N   LIG     1      -0.877   2.216   8.784  1.00  0.00    -0.059 NA
HETATM    3  N   LIG     1       0.377   4.172   8.366  1.00  0.00    -0.057 NA
HETATM    4  C   LIG     1       0.218   1.434   8.653  1.00  0.00     0.129 A 
HETATM    5  C   LIG     1      -0.786   3.554   8.632  1.00  0.00     0.729 A 
HETATM    6  C   LIG     1       1.442   2.015   8.359  1.00  0.00     0.178 A 
HETATM    7  C   LIG     1       1.459   3.384   8.224  1.00  0.00     0.149 A 
ENDROOT
BRANCH   5   8
HETATM    8  N   LIG     1      -1.918   4.342   8.754  1.00  0.00    -0.170 N 
HETATM    9  H   LIG     1      -2.384   4.506   7.873  1.00  0.00     0.186 HD
BRANCH   8  10
HETATM   10  C   LIG     1      -2.259   5.250   9.753  1.00  0.00     0.156 A 
HETATM   11  C   LIG     1      -3.430   5.116  10.494  1.00  0.00     0.037 A 
HETATM   12  C   LIG     1      -3.701   5.983  11.543  1.00  0.00     0.002 A 
HETATM   13  C   LIG     1      -2.817   7.020  11.814  1.00  0.00     0.030 A 
HETATM   14  C   LIG     1      -1.703   7.130  10.992  1.00  0.00     0.098 A 
HETATM   15  N   LIG     1      -1.411   6.275   9.977  1.00  0.00    -0.227 NA
BRANCH  13  16
HETATM   16  C   LIG     1      -3.093   7.971  12.947  1.00  0.00     0.278 C 
BRANCH  16  17
HETATM   17  N   LIG     1      -4.259   7.615  13.772  1.00  0.00     0.146 N 
HETATM   18  C   LIG     1      -5.332   8.623  13.595  1.00  0.00     0.286 C 
HETATM   19  C   LIG     1      -5.054   9.988  14.275  1.00  0.00     0.285 C 
HETATM   20  N   LIG     1      -4.699   9.919  15.708  1.00  0.00     0.141 N 
HETATM   21  C   LIG     1      -3.647   8.891  15.894  1.00  0.00     0.285 C 
HETATM   22  C   LIG     1      -3.948   7.530  15.216  1.00  0.00     0.286 C 
BRANCH  20  23
HETATM   23  C   LIG     1      -5.851   9.639  16.584  1.00  0.00     0.251 C 
HETATM   24  C   LIG     1      -5.652  10.069  18.035  1.00  0.00     0.037 C 
ENDBRANCH  20  23
ENDBRANCH  16  17
ENDBRANCH  13  16
ENDBRANCH   8  10
ENDBRANCH   5   8
BRANCH   4  25
HETATM   25  C   LIG     1      -0.030  -0.036   8.825  1.00  0.00     0.024 A 
HETATM   26  C   LIG     1      -0.755  -0.769   7.873  1.00  0.00     0.033 A 
HETATM   27  C   LIG     1      -1.004  -2.135   8.020  1.00  0.00     0.159 A 
HETATM   28  C   LIG     1      -0.524  -2.818   9.143  1.00  0.00     0.126 A 
HETATM   29  F   LIG     1      -1.708  -2.770   7.073  1.00  0.00    -0.203 F 
HETATM   30  C   LIG     1       0.205  -2.123  10.101  1.00  0.00     0.081 A 
HETATM   31  N   LIG     1      -0.659  -4.131   9.486  1.00  0.00    -0.229 NA
HETATM   32  N   LIG     1       0.533  -3.086  11.052  1.00  0.00    -0.317 N 
HETATM   33  C   LIG     1       0.459  -0.737   9.963  1.00  0.00     0.021 A 
HETATM   34  C   LIG     1      -0.041  -4.278  10.637  1.00  0.00     0.121 A 
HETATM   35  C   LIG     1       0.007  -5.579  11.350  1.00  0.00     0.072 C 
BRANCH  32  36
HETATM   36  C   LIG     1       1.355  -2.845  12.241  1.00  0.00     0.087 C 
HETATM   37  C   LIG     1       0.746  -1.885  13.270  1.00  0.00     0.025 C 
HETATM   38  C   LIG     1       2.774  -2.389  11.891  1.00  0.00     0.025 C 
ENDBRANCH  32  36
ENDBRANCH   4  25
TORSDOF 7
ENDMDL
MODEL 6
REMARK VINA RESULT:      -8.4      3.351     10.342
REMARK  7 active torsions:
REMARK  status: ('A' for Active; 'I' for Inactive)
REMARK    1  A    between atoms: C_4  and  C_25 
REMARK    2  A    between atoms: C_5  and  N_8 
REMARK    3  A    between atoms: N_8  and  C_10 
REMARK    4  A    between atoms: C_13  and  C_16 
REMARK    5  A    between atoms: C_16  and  N_17 
REMARK    6  A    between atoms: N_20  and  C_23 
REMARK    7  A    between atoms: N_28  and  C_36 
ROOT
HETATM    1  F   LIG     1       0.364   4.051   7.203  1.00  0.00    -0.201 F 
HETATM    2  N   LIG     1      -1.590   4.383  10.223  1.00  0.00    -0.059 NA
HETATM    3  N   LIG     1      -2.315   5.972   8.635  1.00  0.00    -0.057 NA
HETATM    4  C   LIG     1      -0.648   3.906   9.379  1.00  0.00     0.129 A 
HETATM    5  C   LIG     1      -2.406   5.389   9.842  1.00  0.00     0.729 A 
HETATM    6  C   LIG     1      -0.523   4.456   8.113  1.00  0.00     0.178 A 
HETATM    7  C   LIG     1      -1.384   5.482   7.796  1.00  0.00     0.149 A 
ENDROOT
BRANCH   5   8
HETATM    8  N   LIG     1      -3.376   5.859  10.711  1.00  0.00    -0.170 N 
HETATM    9  H   LIG     1      -4.315   5.755  10.351  1.00  0.00     0.186 HD
BRANCH   8  10
HETATM   10  C   LIG     1      -3.265   6.788  11.741  1.00  0.00     0.156 A 
HETATM   11  C   LIG     1      -4.281   6.972  12.674  1.00  0.00     0.037 A 
HETATM   12  C   LIG     1      -4.107   7.840  13.743  1.00  0.00     0.002 A 
HETATM   13  C   LIG     1      -2.928   8.566  13.843  1.00  0.00     0.030 A 
HETATM   14  C   LIG     1      -1.985   8.380  12.840  1.00  0.00     0.098 A 
HETATM   15  N   LIG     1      -2.129   7.515  11.802  1.00  0.00    -0.227 NA
BRANCH  13  16
HETATM   16  C   LIG     1      -2.719   9.513  14.994  1.00  0.00     0.278 C 
BRANCH  16  17
HETATM   17  N   LIG     1      -2.755   8.876  16.321  1.00  0.00     0.146 N 
HETATM   18  C   LIG     1      -2.498   9.886  17.376  1.00  0.00     0.286 C 
HETATM   19  C   LIG     1      -1.028  10.372  17.460  1.00  0.00     0.285 C 
HETATM   20  N   LIG     1      -0.015   9.302  17.572  1.00  0.00     0.141 N 
HETATM   21  C   LIG     1      -0.286   8.273  16.538  1.00  0.00     0.285 C 
HETATM   22  C   LIG     1      -1.758   7.793  16.476  1.00  0.00     0.286 C 
BRANCH  20  23
HETATM   23  C   LIG     1       0.040   8.683  18.908  1.00  0.00     0.251 C 
HETATM   24  C   LIG     1       1.389   8.060  19.255  1.00  0.00     0.037 C 
ENDBRANCH  20  23
ENDBRANCH  16  17
ENDBRANCH  13  16
ENDBRANCH   8  10
ENDBRANCH   5   8
BRANCH   4  25
HETATM   25  C   LIG     1       0.172   2.773   9.923  1.00  0.00     0.024 A 
HETATM   26  C   LIG     1       1.208   3.000  10.843  1.00  0.00     0.033 A 
HETATM   27  C   LIG     1       1.988   1.961  11.353  1.00  0.00     0.159 A 
HETATM   28  C   LIG     1       1.747   0.642  10.953  1.00  0.00     0.126 A 
HETATM   29  F   LIG     1       2.964   2.252  12.224  1.00  0.00    -0.203 F 
HETATM   30  C   LIG     1       0.723   0.381  10.050  1.00  0.00     0.081 A 
HETATM   31  N   LIG     1       2.387  -0.507  11.313  1.00  0.00    -0.229 NA
HETATM   32  N   LIG     1       0.750  -1.001   9.885  1.00  0.00    -0.317 N 
HETATM   33  C   LIG     1      -0.070   1.429   9.523  1.00  0.00     0.021 A 
HETATM   34  C   LIG     1       1.797  -1.481  10.657  1.00  0.00     0.121 A 
HETATM   35  C   LIG     1       2.237  -2.894  10.771  1.00  0.00     0.072 C 
BRANCH  32  36
HETATM   36  C   LIG     1      -0.189  -1.766   9.059  1.00  0.00     0.087 C 
HETATM   37  C   LIG     1      -0.440  -1.193   7.659  1.00  0.00     0.025 C 
HETATM   38  C   LIG     1      -1.527  -2.005   9.762  1.00  0.00     0.025 C 
ENDBRANCH  32  36
ENDBRANCH   4  25
TORSDOF 7
ENDMDL
MODEL 7
REMARK VINA RESULT:      -8.4      2.741     10.313
REMARK  7 active torsions:
REMARK  status: ('A' for Active; 'I' for Inactive)
REMARK    1  A    between atoms: C_4  and  C_25 
REMARK    2  A    between atoms: C_5  and  N_8 
REMARK    3  A    between atoms: N_8  and  C_10 
REMARK    4  A    between atoms: C_13  and  C_16 
REMARK    5  A    between atoms: C_16  and  N_17 
REMARK    6  A    between atoms: N_20  and  C_23 
REMARK    7  A    between atoms: N_28  and  C_36 
ROOT
HETATM    1  F   LIG     1      -0.212   3.779   7.119  1.00  0.00    -0.201 F 
HETATM    2  N   LIG     1      -1.074   4.907  10.441  1.00  0.00    -0.059 NA
HETATM    3  N   LIG     1      -2.016   6.366   8.842  1.00  0.00    -0.057 NA
HETATM    4  C   LIG     1      -0.517   4.141   9.477  1.00  0.00     0.129 A 
HETATM    5  C   LIG     1      -1.814   5.988  10.116  1.00  0.00     0.729 A 
HETATM    6  C   LIG     1      -0.709   4.472   8.145  1.00  0.00     0.178 A 
HETATM    7  C   LIG     1      -1.468   5.591   7.889  1.00  0.00     0.149 A 
ENDROOT
BRANCH   5   8
HETATM    8  N   LIG     1      -2.393   6.756  11.112  1.00  0.00    -0.170 N 
HETATM    9  H   LIG     1      -1.764   7.448  11.494  1.00  0.00     0.186 HD
BRANCH   8  10
HETATM   10  C   LIG     1      -3.483   6.469  11.928  1.00  0.00     0.156 A 
HETATM   11  C   LIG     1      -3.732   7.185  13.096  1.00  0.00     0.037 A 
HETATM   12  C   LIG     1      -4.875   6.939  13.842  1.00  0.00     0.002 A 
HETATM   13  C   LIG     1      -5.744   5.932  13.442  1.00  0.00     0.030 A 
HETATM   14  C   LIG     1      -5.399   5.216  12.303  1.00  0.00     0.098 A 
HETATM   15  N   LIG     1      -4.297   5.462  11.547  1.00  0.00    -0.227 NA
BRANCH  13  16
HETATM   16  C   LIG     1      -6.990   5.648  14.238  1.00  0.00     0.278 C 
BRANCH  16  17
HETATM   17  N   LIG     1      -8.100   6.582  13.985  1.00  0.00     0.146 N 
HETATM   18  C   LIG     1      -9.272   6.213  14.814  1.00  0.00     0.286 C 
HETATM   19  C   LIG     1     -10.016   4.934  14.348  1.00  0.00     0.285 C 
HETATM   20  N   LIG     1     -10.417   4.921  12.926  1.00  0.00     0.141 N 
HETATM   21  C   LIG     1      -9.256   5.320  12.094  1.00  0.00     0.285 C 
HETATM   22  C   LIG     1      -8.532   6.605  12.570  1.00  0.00     0.286 C 
BRANCH  20  23
HETATM   23  C   LIG     1     -11.576   5.784  12.635  1.00  0.00     0.251 C 
HETATM   24  C   LIG     1     -12.660   5.759  13.709  1.00  0.00     0.037 C 
ENDBRANCH  20  23
ENDBRANCH  16  17
ENDBRANCH  13  16
ENDBRANCH   8  10
ENDBRANCH   5   8
BRANCH   4  25
HETATM   25  C   LIG     1       0.260   2.959   9.979  1.00  0.00     0.024 A 
HETATM   26  C   LIG     1       1.331   3.117  10.873  1.00  0.00     0.033 A 
HETATM   27  C   LIG     1       2.070   2.030  11.343  1.00  0.00     0.159 A 
HETATM   28  C   LIG     1       1.752   0.733  10.928  1.00  0.00     0.126 A 
HETATM   29  F   LIG     1       3.083   2.256  12.191  1.00  0.00    -0.203 F 
HETATM   30  C   LIG     1       0.691   0.540  10.050  1.00  0.00     0.081 A 
HETATM   31  N   LIG     1       2.342  -0.454  11.251  1.00  0.00    -0.229 NA
HETATM   32  N   LIG     1       0.643  -0.839   9.861  1.00  0.00    -0.317 N 
HETATM   33  C   LIG     1      -0.062   1.636   9.563  1.00  0.00     0.021 A 
HETATM   34  C   LIG     1       1.685  -1.385  10.595  1.00  0.00     0.121 A 
HETATM   35  C   LIG     1       2.055  -2.820  10.673  1.00  0.00     0.072 C 
BRANCH  32  36
HETATM   36  C   LIG     1      -0.356  -1.540   9.050  1.00  0.00     0.087 C 
HETATM   37  C   LIG     1      -0.522  -1.009   7.620  1.00  0.00     0.025 C 
HETATM   38  C   LIG     1      -1.723  -1.608   9.733  1.00  0.00     0.025 C 
ENDBRANCH  32  36
ENDBRANCH   4  25
TORSDOF 7
ENDMDL
MODEL 8
REMARK VINA RESULT:      -8.3      2.850      4.633
REMARK  7 active torsions:
REMARK  status: ('A' for Active; 'I' for Inactive)
REMARK    1  A    between atoms: C_4  and  C_25 
REMARK    2  A    between atoms: C_5  and  N_8 
REMARK    3  A    between atoms: N_8  and  C_10 
REMARK    4  A    between atoms: C_13  and  C_16 
REMARK    5  A    between atoms: C_16  and  N_17 
REMARK    6  A    between atoms: N_20  and  C_23 
REMARK    7  A    between atoms: N_28  and  C_36 
ROOT
HETATM    1  F   LIG     1      -5.358   6.876  13.063  1.00  0.00    -0.201 F 
HETATM    2  N   LIG     1      -2.029   6.522  11.706  1.00  0.00    -0.059 NA
HETATM    3  N   LIG     1      -3.557   5.315  10.372  1.00  0.00    -0.057 NA
HETATM    4  C   LIG     1      -3.010   6.923  12.544  1.00  0.00     0.129 A 
HETATM    5  C   LIG     1      -2.312   5.743  10.640  1.00  0.00     0.729 A 
HETATM    6  C   LIG     1      -4.317   6.528  12.304  1.00  0.00     0.178 A 
HETATM    7  C   LIG     1      -4.530   5.729  11.205  1.00  0.00     0.149 A 
ENDROOT
BRANCH   5   8
HETATM    8  N   LIG     1      -1.300   5.352   9.780  1.00  0.00    -0.170 N 
HETATM    9  H   LIG     1      -1.272   5.893   8.928  1.00  0.00     0.186 HD
BRANCH   8  10
HETATM   10  C   LIG     1      -0.629   4.135   9.700  1.00  0.00     0.156 A 
HETATM   11  C   LIG     1       0.553   3.903  10.397  1.00  0.00     0.037 A 
HETATM   12  C   LIG     1       1.152   2.652  10.370  1.00  0.00     0.002 A 
HETATM   13  C   LIG     1       0.588   1.645   9.597  1.00  0.00     0.030 A 
HETATM   14  C   LIG     1      -0.556   1.967   8.877  1.00  0.00     0.098 A 
HETATM   15  N   LIG     1      -1.168   3.180   8.913  1.00  0.00    -0.227 NA
BRANCH  13  16
HETATM   16  C   LIG     1       1.222   0.281   9.554  1.00  0.00     0.278 C 
BRANCH  16  17
HETATM   17  N   LIG     1       0.448  -0.772  10.232  1.00  0.00     0.146 N 
HETATM   18  C   LIG     1       0.748  -0.769  11.683  1.00  0.00     0.286 C 
HETATM   19  C   LIG     1       2.149  -1.323  12.053  1.00  0.00     0.285 C 
HETATM   20  N   LIG     1       2.464  -2.659  11.507  1.00  0.00     0.141 N 
HETATM   21  C   LIG     1       2.136  -2.677  10.061  1.00  0.00     0.285 C 
HETATM   22  C   LIG     1       0.729  -2.129   9.711  1.00  0.00     0.286 C 
BRANCH  20  23
HETATM   23  C   LIG     1       1.769  -3.756  12.203  1.00  0.00     0.251 C 
HETATM   24  C   LIG     1       2.571  -4.382  13.341  1.00  0.00     0.037 C 
ENDBRANCH  20  23
ENDBRANCH  16  17
ENDBRANCH  13  16
ENDBRANCH   8  10
ENDBRANCH   5   8
BRANCH   4  25
HETATM   25  C   LIG     1      -2.558   7.803  13.672  1.00  0.00     0.024 A 
HETATM   26  C   LIG     1      -2.076   7.259  14.873  1.00  0.00     0.033 A 
HETATM   27  C   LIG     1      -1.659   8.062  15.937  1.00  0.00     0.159 A 
HETATM   28  C   LIG     1      -1.711   9.456  15.825  1.00  0.00     0.126 A 
HETATM   29  F   LIG     1      -1.216   7.474  17.056  1.00  0.00    -0.203 F 
HETATM   30  C   LIG     1      -2.175  10.027  14.645  1.00  0.00     0.081 A 
HETATM   31  N   LIG     1      -1.368  10.414  16.732  1.00  0.00    -0.229 NA
HETATM   32  N   LIG     1      -2.081  11.399  14.865  1.00  0.00    -0.317 N 
HETATM   33  C   LIG     1      -2.604   9.221  13.563  1.00  0.00     0.021 A 
HETATM   34  C   LIG     1      -1.610  11.572  16.157  1.00  0.00     0.121 A 
HETATM   35  C   LIG     1      -1.383  12.864  16.852  1.00  0.00     0.072 C 
BRANCH  32  36
HETATM   36  C   LIG     1      -2.406  12.431  13.876  1.00  0.00     0.087 C 
HETATM   37  C   LIG     1      -3.890  12.524  13.497  1.00  0.00     0.025 C 
HETATM   38  C   LIG     1      -1.560  12.315  12.607  1.00  0.00     0.025 C 
ENDBRANCH  32  36
ENDBRANCH   4  25
TORSDOF 7
ENDMDL
MODEL 9
REMARK VINA RESULT:      -8.2      2.824      4.337
REMARK  7 active torsions:
REMARK  status: ('A' for Active; 'I' for Inactive)
REMARK    1  A    between atoms: C_4  and  C_25 
REMARK    2  A    between atoms: C_5  and  N_8 
REMARK    3  A    between atoms: N_8  and  C_10 
REMARK    4  A    between atoms: C_13  and  C_16 
REMARK    5  A    between atoms: C_16  and  N_17 
REMARK    6  A    between atoms: N_20  and  C_23 
REMARK    7  A    between atoms: N_28  and  C_36 
ROOT
HETATM    1  F   LIG     1      -5.064   6.771  12.676  1.00  0.00    -0.201 F 
HETATM    2  N   LIG     1      -1.740   6.507  11.289  1.00  0.00    -0.059 NA
HETATM    3  N   LIG     1      -3.166   4.959  10.220  1.00  0.00    -0.057 NA
HETATM    4  C   LIG     1      -2.741   6.948  12.082  1.00  0.00     0.129 A 
HETATM    5  C   LIG     1      -1.964   5.540  10.374  1.00  0.00     0.729 A 
HETATM    6  C   LIG     1      -4.008   6.400  11.952  1.00  0.00     0.178 A 
HETATM    7  C   LIG     1      -4.161   5.414  11.005  1.00  0.00     0.149 A 
ENDROOT
BRANCH   5   8
HETATM    8  N   LIG     1      -0.933   5.106   9.558  1.00  0.00    -0.170 N 
HETATM    9  H   LIG     1      -0.904   5.585   8.668  1.00  0.00     0.186 HD
BRANCH   8  10
HETATM   10  C   LIG     1      -0.239   3.900   9.575  1.00  0.00     0.156 A 
HETATM   11  C   LIG     1       1.020   3.788  10.157  1.00  0.00     0.037 A 
HETATM   12  C   LIG     1       1.650   2.555  10.240  1.00  0.00     0.002 A 
HETATM   13  C   LIG     1       1.035   1.439   9.687  1.00  0.00     0.030 A 
HETATM   14  C   LIG     1      -0.191   1.638   9.065  1.00  0.00     0.098 A 
HETATM   15  N   LIG     1      -0.833   2.834   8.998  1.00  0.00    -0.227 NA
BRANCH  13  16
HETATM   16  C   LIG     1       1.701   0.092   9.766  1.00  0.00     0.278 C 
BRANCH  16  17
HETATM   17  N   LIG     1       0.861  -0.970  10.345  1.00  0.00     0.146 N 
HETATM   18  C   LIG     1       0.719  -0.766  11.806  1.00  0.00     0.286 C 
HETATM   19  C   LIG     1       1.993  -1.089  12.629  1.00  0.00     0.285 C 
HETATM   20  N   LIG     1       2.576  -2.426  12.392  1.00  0.00     0.141 N 
HETATM   21  C   LIG     1       2.691  -2.647  10.930  1.00  0.00     0.285 C 
HETATM   22  C   LIG     1       1.406  -2.328  10.125  1.00  0.00     0.286 C 
BRANCH  20  23
HETATM   23  C   LIG     1       1.811  -3.519  13.017  1.00  0.00     0.251 C 
HETATM   24  C   LIG     1       2.617  -4.794  13.249  1.00  0.00     0.037 C 
ENDBRANCH  20  23
ENDBRANCH  16  17
ENDBRANCH  13  16
ENDBRANCH   8  10
ENDBRANCH   5   8
BRANCH   4  25
HETATM   25  C   LIG     1      -2.357   8.041  13.036  1.00  0.00     0.024 A 
HETATM   26  C   LIG     1      -1.956   9.304  12.573  1.00  0.00     0.033 A 
HETATM   27  C   LIG     1      -1.586  10.330  13.445  1.00  0.00     0.159 A 
HETATM   28  C   LIG     1      -1.612  10.119  14.828  1.00  0.00     0.126 A 
HETATM   29  F   LIG     1      -1.208  11.509  12.932  1.00  0.00    -0.203 F 
HETATM   30  C   LIG     1      -2.014   8.882  15.319  1.00  0.00     0.081 A 
HETATM   31  N   LIG     1      -1.286  10.968  15.844  1.00  0.00    -0.229 NA
HETATM   32  N   LIG     1      -1.937   9.018  16.703  1.00  0.00    -0.317 N 
HETATM   33  C   LIG     1      -2.385   7.833  14.443  1.00  0.00     0.021 A 
HETATM   34  C   LIG     1      -1.465  10.296  16.960  1.00  0.00     0.121 A 
HETATM   35  C   LIG     1      -1.186  10.885  18.293  1.00  0.00     0.072 C 
BRANCH  32  36
HETATM   36  C   LIG     1      -2.319   7.985  17.670  1.00  0.00     0.087 C 
HETATM   37  C   LIG     1      -3.320   8.435  18.742  1.00  0.00     0.025 C 
HETATM   38  C   LIG     1      -1.109   7.332  18.341  1.00  0.00     0.025 C 
ENDBRANCH  32  36
ENDBRANCH   4  25
TORSDOF 7
ENDMDL
