MODEL 1
REMARK VINA RESULT:      -9.0      0.000      0.000
REMARK  7 active torsions:
REMARK  status: ('A' for Active; 'I' for Inactive)
REMARK    1  A    between atoms: C_4  and  C_25 
REMARK    2  A    between atoms: C_5  and  N_8 
REMARK    3  A    between atoms: N_8  and  C_10 
REMARK    4  A    between atoms: C_13  and  C_16 
REMARK    5  A    between atoms: C_16  and  N_17 
REMARK    6  A    between atoms: N_20  and  C_23 
REMARK    7  A    between atoms: N_28  and  C_36 
ROOT
HETATM    1  F   LIG     1      56.087  -9.773  58.832  1.00  0.00    -0.201 F 
HETATM    2  N   LIG     1      53.993 -11.828  56.725  1.00  0.00    -0.059 NA
HETATM    3  N   LIG     1      52.985 -11.588  58.845  1.00  0.00    -0.057 NA
HETATM    4  C   LIG     1      55.051 -11.073  57.094  1.00  0.00     0.129 A 
HETATM    5  C   LIG     1      52.984 -12.065  57.589  1.00  0.00     0.729 A 
HETATM    6  C   LIG     1      55.096 -10.538  58.372  1.00  0.00     0.178 A 
HETATM    7  C   LIG     1      54.036 -10.826  59.200  1.00  0.00     0.149 A 
ENDROOT
BRANCH   5   8
HETATM    8  N   LIG     1      51.898 -12.828  57.193  1.00  0.00    -0.170 N 
HETATM    9  H   LIG     1      51.014 -12.353  57.314  1.00  0.00     0.186 HD
BRANCH   8  10
HETATM   10  C   LIG     1      51.786 -14.209  57.072  1.00  0.00     0.156 A 
HETATM   11  C   LIG     1      50.666 -14.806  56.501  1.00  0.00     0.037 A 
HETATM   12  C   LIG     1      50.620 -16.179  56.310  1.00  0.00     0.002 A 
HETATM   13  C   LIG     1      51.682 -16.962  56.745  1.00  0.00     0.030 A 
HETATM   14  C   LIG     1      52.737 -16.305  57.365  1.00  0.00     0.098 A 
HETATM   15  N   LIG     1      52.809 -14.959  57.536  1.00  0.00    -0.227 NA
BRANCH  13  16
HETATM   16  C   LIG     1      51.652 -18.454  56.548  1.00  0.00     0.278 C 
BRANCH  16  17
HETATM   17  N   LIG     1      52.819 -19.164  57.098  1.00  0.00     0.146 N 
HETATM   18  C   LIG     1      53.611 -19.765  56.000  1.00  0.00     0.286 C 
HETATM   19  C   LIG     1      52.957 -21.004  55.334  1.00  0.00     0.285 C 
HETATM   20  N   LIG     1      52.545 -22.076  56.264  1.00  0.00     0.141 N 
HETATM   21  C   LIG     1      51.777 -21.475  57.382  1.00  0.00     0.285 C 
HETATM   22  C   LIG     1      52.452 -20.245  58.040  1.00  0.00     0.286 C 
BRANCH  20  23
HETATM   23  C   LIG     1      53.674 -22.866  56.785  1.00  0.00     0.251 C 
HETATM   24  C   LIG     1      54.669 -23.315  55.718  1.00  0.00     0.037 C 
ENDBRANCH  20  23
ENDBRANCH  16  17
ENDBRANCH  13  16
ENDBRANCH   8  10
ENDBRANCH   5   8
BRANCH   4  25
HETATM   25  C   LIG     1      56.088 -10.873  56.028  1.00  0.00     0.024 A 
HETATM   26  C   LIG     1      56.638 -11.962  55.333  1.00  0.00     0.033 A 
HETATM   27  C   LIG     1      57.610 -11.796  54.344  1.00  0.00     0.159 A 
HETATM   28  C   LIG     1      58.065 -10.515  54.016  1.00  0.00     0.126 A 
HETATM   29  F   LIG     1      58.094 -12.882  53.725  1.00  0.00    -0.203 F 
HETATM   30  C   LIG     1      57.535  -9.414  54.679  1.00  0.00     0.081 A 
HETATM   31  N   LIG     1      59.002 -10.132  53.103  1.00  0.00    -0.229 NA
HETATM   32  N   LIG     1      58.184  -8.321  54.111  1.00  0.00    -0.317 N 
HETATM   33  C   LIG     1      56.552  -9.572  55.687  1.00  0.00     0.021 A 
HETATM   34  C   LIG     1      59.080  -8.821  53.179  1.00  0.00     0.121 A 
HETATM   35  C   LIG     1      60.023  -8.034  52.346  1.00  0.00     0.072 C 
BRANCH  32  36
HETATM   36  C   LIG     1      57.918  -6.919  54.447  1.00  0.00     0.087 C 
HETATM   37  C   LIG     1      57.711  -5.990  53.244  1.00  0.00     0.025 C 
HETATM   38  C   LIG     1      58.979  -6.327  55.376  1.00  0.00     0.025 C 
ENDBRANCH  32  36
ENDBRANCH   4  25
TORSDOF 7
ENDMDL
MODEL 2
REMARK VINA RESULT:      -8.7      2.228      3.292
REMARK  7 active torsions:
REMARK  status: ('A' for Active; 'I' for Inactive)
REMARK    1  A    between atoms: C_4  and  C_25 
REMARK    2  A    between atoms: C_5  and  N_8 
REMARK    3  A    between atoms: N_8  and  C_10 
REMARK    4  A    between atoms: C_13  and  C_16 
REMARK    5  A    between atoms: C_16  and  N_17 
REMARK    6  A    between atoms: N_20  and  C_23 
REMARK    7  A    between atoms: N_28  and  C_36 
ROOT
HETATM    1  F   LIG     1      56.666  -8.945  59.312  1.00  0.00    -0.201 F 
HETATM    2  N   LIG     1      54.936 -10.551  56.578  1.00  0.00    -0.059 NA
HETATM    3  N   LIG     1      53.981 -11.234  58.625  1.00  0.00    -0.057 NA
HETATM    4  C   LIG     1      55.839  -9.770  57.210  1.00  0.00     0.129 A 
HETATM    5  C   LIG     1      54.025 -11.255  57.282  1.00  0.00     0.729 A 
HETATM    6  C   LIG     1      55.827  -9.693  58.594  1.00  0.00     0.178 A 
HETATM    7  C   LIG     1      54.876 -10.443  59.246  1.00  0.00     0.149 A 
ENDROOT
BRANCH   5   8
HETATM    8  N   LIG     1      53.096 -12.041  56.622  1.00  0.00    -0.170 N 
HETATM    9  H   LIG     1      52.183 -11.611  56.563  1.00  0.00     0.186 HD
BRANCH   8  10
HETATM   10  C   LIG     1      53.087 -13.417  56.419  1.00  0.00     0.156 A 
HETATM   11  C   LIG     1      52.263 -14.261  57.159  1.00  0.00     0.037 A 
HETATM   12  C   LIG     1      52.208 -15.618  56.874  1.00  0.00     0.002 A 
HETATM   13  C   LIG     1      53.024 -16.137  55.878  1.00  0.00     0.030 A 
HETATM   14  C   LIG     1      53.867 -15.247  55.225  1.00  0.00     0.098 A 
HETATM   15  N   LIG     1      53.915 -13.912  55.475  1.00  0.00    -0.227 NA
BRANCH  13  16
HETATM   16  C   LIG     1      52.980 -17.606  55.553  1.00  0.00     0.278 C 
BRANCH  16  17
HETATM   17  N   LIG     1      53.127 -17.918  54.122  1.00  0.00     0.146 N 
HETATM   18  C   LIG     1      51.794 -18.120  53.506  1.00  0.00     0.286 C 
HETATM   19  C   LIG     1      51.095 -19.447  53.899  1.00  0.00     0.285 C 
HETATM   20  N   LIG     1      51.901 -20.669  53.695  1.00  0.00     0.141 N 
HETATM   21  C   LIG     1      53.247 -20.461  54.282  1.00  0.00     0.285 C 
HETATM   22  C   LIG     1      53.933 -19.134  53.870  1.00  0.00     0.286 C 
BRANCH  20  23
HETATM   23  C   LIG     1      52.015 -21.066  52.280  1.00  0.00     0.251 C 
HETATM   24  C   LIG     1      50.684 -21.412  51.619  1.00  0.00     0.037 C 
ENDBRANCH  20  23
ENDBRANCH  16  17
ENDBRANCH  13  16
ENDBRANCH   8  10
ENDBRANCH   5   8
BRANCH   4  25
HETATM   25  C   LIG     1      56.777  -9.026  56.304  1.00  0.00     0.024 A 
HETATM   26  C   LIG     1      57.024  -7.655  56.477  1.00  0.00     0.033 A 
HETATM   27  C   LIG     1      57.885  -6.945  55.638  1.00  0.00     0.159 A 
HETATM   28  C   LIG     1      58.537  -7.599  54.587  1.00  0.00     0.126 A 
HETATM   29  F   LIG     1      58.069  -5.636  55.860  1.00  0.00    -0.203 F 
HETATM   30  C   LIG     1      58.321  -8.958  54.393  1.00  0.00     0.081 A 
HETATM   31  N   LIG     1      59.399  -7.101  53.655  1.00  0.00    -0.229 NA
HETATM   32  N   LIG     1      59.116  -9.282  53.296  1.00  0.00    -0.317 N 
HETATM   33  C   LIG     1      57.446  -9.686  55.235  1.00  0.00     0.021 A 
HETATM   34  C   LIG     1      59.726  -8.110  52.878  1.00  0.00     0.121 A 
HETATM   35  C   LIG     1      60.638  -7.952  51.717  1.00  0.00     0.072 C 
BRANCH  32  36
HETATM   36  C   LIG     1      59.270 -10.629  52.741  1.00  0.00     0.087 C 
HETATM   37  C   LIG     1      60.694 -11.197  52.795  1.00  0.00     0.025 C 
HETATM   38  C   LIG     1      58.728 -10.740  51.314  1.00  0.00     0.025 C 
ENDBRANCH  32  36
ENDBRANCH   4  25
TORSDOF 7
ENDMDL
MODEL 3
REMARK VINA RESULT:      -8.7     25.637     27.444
REMARK  7 active torsions:
REMARK  status: ('A' for Active; 'I' for Inactive)
REMARK    1  A    between atoms: C_4  and  C_25 
REMARK    2  A    between atoms: C_5  and  N_8 
REMARK    3  A    between atoms: N_8  and  C_10 
REMARK    4  A    between atoms: C_13  and  C_16 
REMARK    5  A    between atoms: C_16  and  N_17 
REMARK    6  A    between atoms: N_20  and  C_23 
REMARK    7  A    between atoms: N_28  and  C_36 
ROOT
HETATM    1  F   LIG     1      65.203  -2.587  81.459  1.00  0.00    -0.201 F 
HETATM    2  N   LIG     1      62.359  -4.364  80.116  1.00  0.00    -0.059 NA
HETATM    3  N   LIG     1      64.240  -5.789  80.141  1.00  0.00    -0.057 NA
HETATM    4  C   LIG     1      63.073  -3.341  80.636  1.00  0.00     0.129 A 
HETATM    5  C   LIG     1      62.940  -5.560  79.888  1.00  0.00     0.729 A 
HETATM    6  C   LIG     1      64.413  -3.526  80.936  1.00  0.00     0.178 A 
HETATM    7  C   LIG     1      64.940  -4.769  80.670  1.00  0.00     0.149 A 
ENDROOT
BRANCH   5   8
HETATM    8  N   LIG     1      62.194  -6.605  79.370  1.00  0.00    -0.170 N 
HETATM    9  H   LIG     1      61.724  -6.367  78.507  1.00  0.00     0.186 HD
BRANCH   8  10
HETATM   10  C   LIG     1      61.663  -7.718  80.015  1.00  0.00     0.156 A 
HETATM   11  C   LIG     1      61.452  -7.735  81.391  1.00  0.00     0.037 A 
HETATM   12  C   LIG     1      60.838  -8.822  81.995  1.00  0.00     0.002 A 
HETATM   13  C   LIG     1      60.484  -9.919  81.221  1.00  0.00     0.030 A 
HETATM   14  C   LIG     1      60.784  -9.859  79.866  1.00  0.00     0.098 A 
HETATM   15  N   LIG     1      61.361  -8.792  79.255  1.00  0.00    -0.227 NA
BRANCH  13  16
HETATM   16  C   LIG     1      59.817 -11.110  81.857  1.00  0.00     0.278 C 
BRANCH  16  17
HETATM   17  N   LIG     1      60.664 -11.843  82.813  1.00  0.00     0.146 N 
HETATM   18  C   LIG     1      61.774 -12.515  82.096  1.00  0.00     0.286 C 
HETATM   19  C   LIG     1      61.350 -13.751  81.261  1.00  0.00     0.285 C 
HETATM   20  N   LIG     1      60.573 -14.772  81.995  1.00  0.00     0.141 N 
HETATM   21  C   LIG     1      59.479 -14.101  82.738  1.00  0.00     0.285 C 
HETATM   22  C   LIG     1      59.924 -12.874  83.574  1.00  0.00     0.286 C 
BRANCH  20  23
HETATM   23  C   LIG     1      61.392 -15.585  82.911  1.00  0.00     0.251 C 
HETATM   24  C   LIG     1      62.420 -16.470  82.213  1.00  0.00     0.037 C 
ENDBRANCH  20  23
ENDBRANCH  16  17
ENDBRANCH  13  16
ENDBRANCH   8  10
ENDBRANCH   5   8
BRANCH   4  25
HETATM   25  C   LIG     1      62.296  -2.076  80.859  1.00  0.00     0.024 A 
HETATM   26  C   LIG     1      61.091  -2.079  81.578  1.00  0.00     0.033 A 
HETATM   27  C   LIG     1      60.349  -0.914  81.788  1.00  0.00     0.159 A 
HETATM   28  C   LIG     1      60.803   0.307  81.278  1.00  0.00     0.126 A 
HETATM   29  F   LIG     1      59.205  -0.993  82.480  1.00  0.00    -0.203 F 
HETATM   30  C   LIG     1      61.998   0.346  80.568  1.00  0.00     0.081 A 
HETATM   31  N   LIG     1      60.238   1.545  81.356  1.00  0.00    -0.229 NA
HETATM   32  N   LIG     1      62.153   1.687  80.226  1.00  0.00    -0.317 N 
HETATM   33  C   LIG     1      62.754  -0.830  80.345  1.00  0.00     0.021 A 
HETATM   34  C   LIG     1      61.042   2.360  80.709  1.00  0.00     0.121 A 
HETATM   35  C   LIG     1      60.747   3.806  80.553  1.00  0.00     0.072 C 
BRANCH  32  36
HETATM   36  C   LIG     1      63.306   2.241  79.510  1.00  0.00     0.087 C 
HETATM   37  C   LIG     1      63.450   1.783  78.054  1.00  0.00     0.025 C 
HETATM   38  C   LIG     1      64.624   2.010  80.253  1.00  0.00     0.025 C 
ENDBRANCH  32  36
ENDBRANCH   4  25
TORSDOF 7
ENDMDL
MODEL 4
REMARK VINA RESULT:      -8.5      3.525      6.612
REMARK  7 active torsions:
REMARK  status: ('A' for Active; 'I' for Inactive)
REMARK    1  A    between atoms: C_4  and  C_25 
REMARK    2  A    between atoms: C_5  and  N_8 
REMARK    3  A    between atoms: N_8  and  C_10 
REMARK    4  A    between atoms: C_13  and  C_16 
REMARK    5  A    between atoms: C_16  and  N_17 
REMARK    6  A    between atoms: N_20  and  C_23 
REMARK    7  A    between atoms: N_28  and  C_36 
ROOT
HETATM    1  F   LIG     1      54.892  -9.733  59.235  1.00  0.00    -0.201 F 
HETATM    2  N   LIG     1      53.166 -11.981  56.996  1.00  0.00    -0.059 NA
HETATM    3  N   LIG     1      55.496 -12.307  56.800  1.00  0.00    -0.057 NA
HETATM    4  C   LIG     1      53.335 -11.011  57.921  1.00  0.00     0.129 A 
HETATM    5  C   LIG     1      54.232 -12.614  56.462  1.00  0.00     0.729 A 
HETATM    6  C   LIG     1      54.616 -10.667  58.323  1.00  0.00     0.178 A 
HETATM    7  C   LIG     1      55.655 -11.348  57.732  1.00  0.00     0.149 A 
ENDROOT
BRANCH   5   8
HETATM    8  N   LIG     1      54.044 -13.617  55.525  1.00  0.00    -0.170 N 
HETATM    9  H   LIG     1      53.879 -13.263  54.593  1.00  0.00     0.186 HD
BRANCH   8  10
HETATM   10  C   LIG     1      53.638 -14.934  55.710  1.00  0.00     0.156 A 
HETATM   11  C   LIG     1      53.104 -15.373  56.918  1.00  0.00     0.037 A 
HETATM   12  C   LIG     1      52.624 -16.668  57.047  1.00  0.00     0.002 A 
HETATM   13  C   LIG     1      52.730 -17.542  55.973  1.00  0.00     0.030 A 
HETATM   14  C   LIG     1      53.333 -17.055  54.820  1.00  0.00     0.098 A 
HETATM   15  N   LIG     1      53.785 -15.782  54.670  1.00  0.00    -0.227 NA
BRANCH  13  16
HETATM   16  C   LIG     1      52.217 -18.952  56.091  1.00  0.00     0.278 C 
BRANCH  16  17
HETATM   17  N   LIG     1      53.129 -19.979  55.562  1.00  0.00     0.146 N 
HETATM   18  C   LIG     1      52.400 -21.255  55.370  1.00  0.00     0.286 C 
HETATM   19  C   LIG     1      52.048 -22.001  56.683  1.00  0.00     0.285 C 
HETATM   20  N   LIG     1      53.183 -22.237  57.599  1.00  0.00     0.141 N 
HETATM   21  C   LIG     1      53.934 -20.969  57.770  1.00  0.00     0.285 C 
HETATM   22  C   LIG     1      54.285 -20.244  56.447  1.00  0.00     0.286 C 
BRANCH  20  23
HETATM   23  C   LIG     1      54.086 -23.311  57.149  1.00  0.00     0.251 C 
HETATM   24  C   LIG     1      53.644 -24.713  57.558  1.00  0.00     0.037 C 
ENDBRANCH  20  23
ENDBRANCH  16  17
ENDBRANCH  13  16
ENDBRANCH   8  10
ENDBRANCH   5   8
BRANCH   4  25
HETATM   25  C   LIG     1      52.065 -10.409  58.446  1.00  0.00     0.024 A 
HETATM   26  C   LIG     1      51.930 -10.057  59.798  1.00  0.00     0.033 A 
HETATM   27  C   LIG     1      50.752  -9.504  60.306  1.00  0.00     0.159 A 
HETATM   28  C   LIG     1      49.661  -9.282  59.461  1.00  0.00     0.126 A 
HETATM   29  F   LIG     1      50.693  -9.197  61.609  1.00  0.00    -0.203 F 
HETATM   30  C   LIG     1      49.764  -9.611  58.114  1.00  0.00     0.081 A 
HETATM   31  N   LIG     1      48.429  -8.769  59.747  1.00  0.00    -0.229 NA
HETATM   32  N   LIG     1      48.531  -9.254  57.574  1.00  0.00    -0.317 N 
HETATM   33  C   LIG     1      50.952 -10.176  57.590  1.00  0.00     0.021 A 
HETATM   34  C   LIG     1      47.755  -8.773  58.618  1.00  0.00     0.121 A 
HETATM   35  C   LIG     1      46.349  -8.308  58.533  1.00  0.00     0.072 C 
BRANCH  32  36
HETATM   36  C   LIG     1      48.174  -9.360  56.157  1.00  0.00     0.087 C 
HETATM   37  C   LIG     1      47.117  -8.358  55.675  1.00  0.00     0.025 C 
HETATM   38  C   LIG     1      47.753 -10.777  55.762  1.00  0.00     0.025 C 
ENDBRANCH  32  36
ENDBRANCH   4  25
TORSDOF 7
ENDMDL
MODEL 5
REMARK VINA RESULT:      -8.5      2.393     10.430
REMARK  7 active torsions:
REMARK  status: ('A' for Active; 'I' for Inactive)
REMARK    1  A    between atoms: C_4  and  C_25 
REMARK    2  A    between atoms: C_5  and  N_8 
REMARK    3  A    between atoms: N_8  and  C_10 
REMARK    4  A    between atoms: C_13  and  C_16 
REMARK    5  A    between atoms: C_16  and  N_17 
REMARK    6  A    between atoms: N_20  and  C_23 
REMARK    7  A    between atoms: N_28  and  C_36 
ROOT
HETATM    1  F   LIG     1      50.634 -13.974  56.909  1.00  0.00    -0.201 F 
HETATM    2  N   LIG     1      54.078 -12.887  56.860  1.00  0.00    -0.059 NA
HETATM    3  N   LIG     1      52.780 -11.343  58.088  1.00  0.00    -0.057 NA
HETATM    4  C   LIG     1      52.997 -13.655  56.601  1.00  0.00     0.129 A 
HETATM    5  C   LIG     1      53.959 -11.762  57.598  1.00  0.00     0.729 A 
HETATM    6  C   LIG     1      51.758 -13.282  57.098  1.00  0.00     0.178 A 
HETATM    7  C   LIG     1      51.711 -12.121  57.835  1.00  0.00     0.149 A 
ENDROOT
BRANCH   5   8
HETATM    8  N   LIG     1      55.077 -10.991  57.869  1.00  0.00    -0.170 N 
HETATM    9  H   LIG     1      55.074 -10.603  58.802  1.00  0.00     0.186 HD
BRANCH   8  10
HETATM   10  C   LIG     1      55.939 -10.343  56.989  1.00  0.00     0.156 A 
HETATM   11  C   LIG     1      56.409  -9.057  57.239  1.00  0.00     0.037 A 
HETATM   12  C   LIG     1      57.338  -8.471  56.391  1.00  0.00     0.002 A 
HETATM   13  C   LIG     1      57.754  -9.159  55.259  1.00  0.00     0.030 A 
HETATM   14  C   LIG     1      57.194 -10.411  55.040  1.00  0.00     0.098 A 
HETATM   15  N   LIG     1      56.303 -11.009  55.873  1.00  0.00    -0.227 NA
BRANCH  13  16
HETATM   16  C   LIG     1      58.760  -8.541  54.326  1.00  0.00     0.278 C 
BRANCH  16  17
HETATM   17  N   LIG     1      58.447  -8.706  52.897  1.00  0.00     0.146 N 
HETATM   18  C   LIG     1      59.028  -9.973  52.393  1.00  0.00     0.286 C 
HETATM   19  C   LIG     1      60.570  -9.957  52.229  1.00  0.00     0.285 C 
HETATM   20  N   LIG     1      61.107  -8.837  51.427  1.00  0.00     0.141 N 
HETATM   21  C   LIG     1      60.505  -7.570  51.907  1.00  0.00     0.285 C 
HETATM   22  C   LIG     1      58.963  -7.603  52.056  1.00  0.00     0.286 C 
BRANCH  20  23
HETATM   23  C   LIG     1      60.885  -8.994  49.979  1.00  0.00     0.251 C 
HETATM   24  C   LIG     1      61.720 -10.096  49.333  1.00  0.00     0.037 C 
ENDBRANCH  20  23
ENDBRANCH  16  17
ENDBRANCH  13  16
ENDBRANCH   8  10
ENDBRANCH   5   8
BRANCH   4  25
HETATM   25  C   LIG     1      53.277 -14.886  55.790  1.00  0.00     0.024 A 
HETATM   26  C   LIG     1      54.271 -14.896  54.799  1.00  0.00     0.033 A 
HETATM   27  C   LIG     1      54.539 -16.029  54.028  1.00  0.00     0.159 A 
HETATM   28  C   LIG     1      53.810 -17.205  54.234  1.00  0.00     0.126 A 
HETATM   29  F   LIG     1      55.499 -15.963  53.096  1.00  0.00    -0.203 F 
HETATM   30  C   LIG     1      52.824 -17.232  55.214  1.00  0.00     0.081 A 
HETATM   31  N   LIG     1      53.900 -18.407  53.595  1.00  0.00    -0.229 NA
HETATM   32  N   LIG     1      52.320 -18.529  55.161  1.00  0.00    -0.317 N 
HETATM   33  C   LIG     1      52.541 -16.087  55.997  1.00  0.00     0.021 A 
HETATM   34  C   LIG     1      52.994 -19.186  54.143  1.00  0.00     0.121 A 
HETATM   35  C   LIG     1      52.770 -20.581  53.690  1.00  0.00     0.072 C 
BRANCH  32  36
HETATM   36  C   LIG     1      51.287 -19.064  56.052  1.00  0.00     0.087 C 
HETATM   37  C   LIG     1      50.090 -18.134  56.293  1.00  0.00     0.025 C 
HETATM   38  C   LIG     1      51.854 -19.527  57.396  1.00  0.00     0.025 C 
ENDBRANCH  32  36
ENDBRANCH   4  25
TORSDOF 7
ENDMDL
MODEL 6
REMARK VINA RESULT:      -8.5      3.371     10.180
REMARK  7 active torsions:
REMARK  status: ('A' for Active; 'I' for Inactive)
REMARK    1  A    between atoms: C_4  and  C_25 
REMARK    2  A    between atoms: C_5  and  N_8 
REMARK    3  A    between atoms: N_8  and  C_10 
REMARK    4  A    between atoms: C_13  and  C_16 
REMARK    5  A    between atoms: C_16  and  N_17 
REMARK    6  A    between atoms: N_20  and  C_23 
REMARK    7  A    between atoms: N_28  and  C_36 
ROOT
HETATM    1  F   LIG     1      50.714 -16.154  56.744  1.00  0.00    -0.201 F 
HETATM    2  N   LIG     1      53.652 -14.437  55.532  1.00  0.00    -0.059 NA
HETATM    3  N   LIG     1      53.559 -16.601  54.593  1.00  0.00    -0.057 NA
HETATM    4  C   LIG     1      52.512 -14.643  56.227  1.00  0.00     0.129 A 
HETATM    5  C   LIG     1      54.149 -15.401  54.728  1.00  0.00     0.729 A 
HETATM    6  C   LIG     1      51.849 -15.854  56.111  1.00  0.00     0.178 A 
HETATM    7  C   LIG     1      52.417 -16.792  55.279  1.00  0.00     0.149 A 
ENDROOT
BRANCH   5   8
HETATM    8  N   LIG     1      55.310 -15.173  54.009  1.00  0.00    -0.170 N 
HETATM    9  H   LIG     1      55.818 -16.021  53.797  1.00  0.00     0.186 HD
BRANCH   8  10
HETATM   10  C   LIG     1      56.074 -14.015  53.908  1.00  0.00     0.156 A 
HETATM   11  C   LIG     1      57.445 -14.060  53.672  1.00  0.00     0.037 A 
HETATM   12  C   LIG     1      58.167 -12.890  53.486  1.00  0.00     0.002 A 
HETATM   13  C   LIG     1      57.517 -11.667  53.592  1.00  0.00     0.030 A 
HETATM   14  C   LIG     1      56.161 -11.697  53.894  1.00  0.00     0.098 A 
HETATM   15  N   LIG     1      55.436 -12.835  54.054  1.00  0.00    -0.227 NA
BRANCH  13  16
HETATM   16  C   LIG     1      58.281 -10.385  53.395  1.00  0.00     0.278 C 
BRANCH  16  17
HETATM   17  N   LIG     1      58.199  -9.831  52.033  1.00  0.00     0.146 N 
HETATM   18  C   LIG     1      59.365 -10.276  51.233  1.00  0.00     0.286 C 
HETATM   19  C   LIG     1      60.706  -9.597  51.613  1.00  0.00     0.285 C 
HETATM   20  N   LIG     1      60.682  -8.119  51.634  1.00  0.00     0.141 N 
HETATM   21  C   LIG     1      59.499  -7.669  52.408  1.00  0.00     0.285 C 
HETATM   22  C   LIG     1      58.167  -8.352  52.007  1.00  0.00     0.286 C 
BRANCH  20  23
HETATM   23  C   LIG     1      60.676  -7.514  50.291  1.00  0.00     0.251 C 
HETATM   24  C   LIG     1      62.041  -7.019  49.822  1.00  0.00     0.037 C 
ENDBRANCH  20  23
ENDBRANCH  16  17
ENDBRANCH  13  16
ENDBRANCH   8  10
ENDBRANCH   5   8
BRANCH   4  25
HETATM   25  C   LIG     1      52.063 -13.480  57.062  1.00  0.00     0.024 A 
HETATM   26  C   LIG     1      52.738 -13.125  58.241  1.00  0.00     0.033 A 
HETATM   27  C   LIG     1      52.329 -12.052  59.036  1.00  0.00     0.159 A 
HETATM   28  C   LIG     1      51.217 -11.289  58.665  1.00  0.00     0.126 A 
HETATM   29  F   LIG     1      53.018 -11.775  60.151  1.00  0.00    -0.203 F 
HETATM   30  C   LIG     1      50.531 -11.608  57.498  1.00  0.00     0.081 A 
HETATM   31  N   LIG     1      50.648 -10.220  59.292  1.00  0.00    -0.229 NA
HETATM   32  N   LIG     1      49.513 -10.661  57.426  1.00  0.00    -0.317 N 
HETATM   33  C   LIG     1      50.935 -12.697  56.688  1.00  0.00     0.021 A 
HETATM   34  C   LIG     1      49.620  -9.863  58.554  1.00  0.00     0.121 A 
HETATM   35  C   LIG     1      48.727  -8.739  58.931  1.00  0.00     0.072 C 
BRANCH  32  36
HETATM   36  C   LIG     1      48.547 -10.550  56.329  1.00  0.00     0.087 C 
HETATM   37  C   LIG     1      47.872 -11.865  55.921  1.00  0.00     0.025 C 
HETATM   38  C   LIG     1      49.141  -9.874  55.091  1.00  0.00     0.025 C 
ENDBRANCH  32  36
ENDBRANCH   4  25
TORSDOF 7
ENDMDL
MODEL 7
REMARK VINA RESULT:      -8.4     26.423     27.991
REMARK  7 active torsions:
REMARK  status: ('A' for Active; 'I' for Inactive)
REMARK    1  A    between atoms: C_4  and  C_25 
REMARK    2  A    between atoms: C_5  and  N_8 
REMARK    3  A    between atoms: N_8  and  C_10 
REMARK    4  A    between atoms: C_13  and  C_16 
REMARK    5  A    between atoms: C_16  and  N_17 
REMARK    6  A    between atoms: N_20  and  C_23 
REMARK    7  A    between atoms: N_28  and  C_36 
ROOT
HETATM    1  F   LIG     1      58.915  -0.732  83.387  1.00  0.00    -0.201 F 
HETATM    2  N   LIG     1      57.300  -3.515  81.745  1.00  0.00    -0.059 NA
HETATM    3  N   LIG     1      55.681  -2.211  82.864  1.00  0.00    -0.057 NA
HETATM    4  C   LIG     1      58.300  -2.704  82.157  1.00  0.00     0.129 A 
HETATM    5  C   LIG     1      56.021  -3.257  82.091  1.00  0.00     0.729 A 
HETATM    6  C   LIG     1      58.005  -1.599  82.939  1.00  0.00     0.178 A 
HETATM    7  C   LIG     1      56.682  -1.402  83.258  1.00  0.00     0.149 A 
ENDROOT
BRANCH   5   8
HETATM    8  N   LIG     1      55.004  -4.087  81.651  1.00  0.00    -0.170 N 
HETATM    9  H   LIG     1      55.300  -5.044  81.524  1.00  0.00     0.186 HD
BRANCH   8  10
HETATM   10  C   LIG     1      53.828  -3.765  80.980  1.00  0.00     0.156 A 
HETATM   11  C   LIG     1      53.137  -4.705  80.222  1.00  0.00     0.037 A 
HETATM   12  C   LIG     1      51.920  -4.382  79.639  1.00  0.00     0.002 A 
HETATM   13  C   LIG     1      51.423  -3.092  79.774  1.00  0.00     0.030 A 
HETATM   14  C   LIG     1      52.199  -2.189  80.489  1.00  0.00     0.098 A 
HETATM   15  N   LIG     1      53.379  -2.496  81.088  1.00  0.00    -0.227 NA
BRANCH  13  16
HETATM   16  C   LIG     1      50.106  -2.720  79.148  1.00  0.00     0.278 C 
BRANCH  16  17
HETATM   17  N   LIG     1      49.427  -1.581  79.789  1.00  0.00     0.146 N 
HETATM   18  C   LIG     1      48.182  -2.038  80.450  1.00  0.00     0.286 C 
HETATM   19  C   LIG     1      47.029  -2.397  79.477  1.00  0.00     0.285 C 
HETATM   20  N   LIG     1      46.686  -1.351  78.491  1.00  0.00     0.141 N 
HETATM   21  C   LIG     1      47.933  -0.868  77.849  1.00  0.00     0.285 C 
HETATM   22  C   LIG     1      49.070  -0.505  78.837  1.00  0.00     0.286 C 
BRANCH  20  23
HETATM   23  C   LIG     1      45.938  -0.221  79.071  1.00  0.00     0.251 C 
HETATM   24  C   LIG     1      44.482  -0.138  78.621  1.00  0.00     0.037 C 
ENDBRANCH  20  23
ENDBRANCH  16  17
ENDBRANCH  13  16
ENDBRANCH   8  10
ENDBRANCH   5   8
BRANCH   4  25
HETATM   25  C   LIG     1      59.668  -3.096  81.681  1.00  0.00     0.024 A 
HETATM   26  C   LIG     1      60.540  -2.154  81.114  1.00  0.00     0.033 A 
HETATM   27  C   LIG     1      61.814  -2.502  80.657  1.00  0.00     0.159 A 
HETATM   28  C   LIG     1      62.258  -3.824  80.760  1.00  0.00     0.126 A 
HETATM   29  F   LIG     1      62.590  -1.550  80.122  1.00  0.00    -0.203 F 
HETATM   30  C   LIG     1      61.422  -4.781  81.325  1.00  0.00     0.081 A 
HETATM   31  N   LIG     1      63.443  -4.375  80.373  1.00  0.00    -0.229 NA
HETATM   32  N   LIG     1      62.166  -5.957  81.285  1.00  0.00    -0.317 N 
HETATM   33  C   LIG     1      60.128  -4.439  81.786  1.00  0.00     0.021 A 
HETATM   34  C   LIG     1      63.373  -5.654  80.674  1.00  0.00     0.121 A 
HETATM   35  C   LIG     1      64.477  -6.600  80.376  1.00  0.00     0.072 C 
BRANCH  32  36
HETATM   36  C   LIG     1      61.726  -7.247  81.824  1.00  0.00     0.087 C 
HETATM   37  C   LIG     1      60.590  -7.924  81.046  1.00  0.00     0.025 C 
HETATM   38  C   LIG     1      61.354  -7.167  83.306  1.00  0.00     0.025 C 
ENDBRANCH  32  36
ENDBRANCH   4  25
TORSDOF 7
ENDMDL
MODEL 8
REMARK VINA RESULT:      -8.4      2.616     11.069
REMARK  7 active torsions:
REMARK  status: ('A' for Active; 'I' for Inactive)
REMARK    1  A    between atoms: C_4  and  C_25 
REMARK    2  A    between atoms: C_5  and  N_8 
REMARK    3  A    between atoms: N_8  and  C_10 
REMARK    4  A    between atoms: C_13  and  C_16 
REMARK    5  A    between atoms: C_16  and  N_17 
REMARK    6  A    between atoms: N_20  and  C_23 
REMARK    7  A    between atoms: N_28  and  C_36 
ROOT
HETATM    1  F   LIG     1      51.795 -13.472  58.191  1.00  0.00    -0.201 F 
HETATM    2  N   LIG     1      54.784 -12.186  56.623  1.00  0.00    -0.059 NA
HETATM    3  N   LIG     1      54.065 -10.688  58.300  1.00  0.00    -0.057 NA
HETATM    4  C   LIG     1      53.752 -13.023  56.868  1.00  0.00     0.129 A 
HETATM    5  C   LIG     1      54.931 -11.050  57.338  1.00  0.00     0.729 A 
HETATM    6  C   LIG     1      52.840 -12.711  57.863  1.00  0.00     0.178 A 
HETATM    7  C   LIG     1      53.048 -11.535  58.546  1.00  0.00     0.149 A 
ENDROOT
BRANCH   5   8
HETATM    8  N   LIG     1      56.001 -10.207  57.087  1.00  0.00    -0.170 N 
HETATM    9  H   LIG     1      56.178  -9.557  57.839  1.00  0.00     0.186 HD
BRANCH   8  10
HETATM   10  C   LIG     1      56.565  -9.834  55.871  1.00  0.00     0.156 A 
HETATM   11  C   LIG     1      57.655  -8.971  55.805  1.00  0.00     0.037 A 
HETATM   12  C   LIG     1      58.255  -8.687  54.586  1.00  0.00     0.002 A 
HETATM   13  C   LIG     1      57.723  -9.231  53.424  1.00  0.00     0.030 A 
HETATM   14  C   LIG     1      56.596 -10.031  53.560  1.00  0.00     0.098 A 
HETATM   15  N   LIG     1      56.012 -10.339  54.748  1.00  0.00    -0.227 NA
BRANCH  13  16
HETATM   16  C   LIG     1      58.358  -8.935  52.092  1.00  0.00     0.278 C 
BRANCH  16  17
HETATM   17  N   LIG     1      59.042  -7.634  52.018  1.00  0.00     0.146 N 
HETATM   18  C   LIG     1      58.082  -6.577  51.621  1.00  0.00     0.286 C 
HETATM   19  C   LIG     1      57.647  -6.625  50.133  1.00  0.00     0.285 C 
HETATM   20  N   LIG     1      58.754  -6.653  49.153  1.00  0.00     0.141 N 
HETATM   21  C   LIG     1      59.733  -7.688  49.564  1.00  0.00     0.285 C 
HETATM   22  C   LIG     1      60.162  -7.618  51.051  1.00  0.00     0.286 C 
BRANCH  20  23
HETATM   23  C   LIG     1      59.423  -5.351  48.988  1.00  0.00     0.251 C 
HETATM   24  C   LIG     1      58.474  -4.156  48.973  1.00  0.00     0.037 C 
ENDBRANCH  20  23
ENDBRANCH  16  17
ENDBRANCH  13  16
ENDBRANCH   8  10
ENDBRANCH   5   8
BRANCH   4  25
HETATM   25  C   LIG     1      53.724 -14.258  56.015  1.00  0.00     0.024 A 
HETATM   26  C   LIG     1      54.470 -14.341  54.829  1.00  0.00     0.033 A 
HETATM   27  C   LIG     1      54.449 -15.478  54.018  1.00  0.00     0.159 A 
HETATM   28  C   LIG     1      53.670 -16.583  54.380  1.00  0.00     0.126 A 
HETATM   29  F   LIG     1      55.182 -15.485  52.897  1.00  0.00    -0.203 F 
HETATM   30  C   LIG     1      52.926 -16.536  55.553  1.00  0.00     0.081 A 
HETATM   31  N   LIG     1      53.498 -17.773  53.737  1.00  0.00    -0.229 NA
HETATM   32  N   LIG     1      52.296 -17.777  55.613  1.00  0.00    -0.317 N 
HETATM   33  C   LIG     1      52.937 -15.386  56.379  1.00  0.00     0.021 A 
HETATM   34  C   LIG     1      52.662 -18.473  54.472  1.00  0.00     0.121 A 
HETATM   35  C   LIG     1      52.207 -19.830  54.079  1.00  0.00     0.072 C 
BRANCH  32  36
HETATM   36  C   LIG     1      51.437 -18.228  56.711  1.00  0.00     0.087 C 
HETATM   37  C   LIG     1      51.762 -19.623  57.261  1.00  0.00     0.025 C 
HETATM   38  C   LIG     1      49.949 -18.150  56.362  1.00  0.00     0.025 C 
ENDBRANCH  32  36
ENDBRANCH   4  25
TORSDOF 7
ENDMDL
MODEL 9
REMARK VINA RESULT:      -8.3      3.391      9.648
REMARK  7 active torsions:
REMARK  status: ('A' for Active; 'I' for Inactive)
REMARK    1  A    between atoms: C_4  and  C_25 
REMARK    2  A    between atoms: C_5  and  N_8 
REMARK    3  A    between atoms: N_8  and  C_10 
REMARK    4  A    between atoms: C_13  and  C_16 
REMARK    5  A    between atoms: C_16  and  N_17 
REMARK    6  A    between atoms: N_20  and  C_23 
REMARK    7  A    between atoms: N_28  and  C_36 
ROOT
HETATM    1  F   LIG     1      56.732 -16.846  50.476  1.00  0.00    -0.201 F 
HETATM    2  N   LIG     1      56.384 -14.321  53.036  1.00  0.00    -0.059 NA
HETATM    3  N   LIG     1      57.413 -13.378  51.132  1.00  0.00    -0.057 NA
HETATM    4  C   LIG     1      56.303 -15.534  52.445  1.00  0.00     0.129 A 
HETATM    5  C   LIG     1      56.922 -13.272  52.378  1.00  0.00     0.729 A 
HETATM    6  C   LIG     1      56.775 -15.697  51.152  1.00  0.00     0.178 A 
HETATM    7  C   LIG     1      57.315 -14.586  50.546  1.00  0.00     0.149 A 
ENDROOT
BRANCH   5   8
HETATM    8  N   LIG     1      56.986 -12.031  52.989  1.00  0.00    -0.170 N 
HETATM    9  H   LIG     1      57.867 -11.560  52.837  1.00  0.00     0.186 HD
BRANCH   8  10
HETATM   10  C   LIG     1      56.260 -11.539  54.069  1.00  0.00     0.156 A 
HETATM   11  C   LIG     1      55.010 -10.951  53.904  1.00  0.00     0.037 A 
HETATM   12  C   LIG     1      54.268 -10.551  55.006  1.00  0.00     0.002 A 
HETATM   13  C   LIG     1      54.809 -10.694  56.277  1.00  0.00     0.030 A 
HETATM   14  C   LIG     1      56.088 -11.229  56.362  1.00  0.00     0.098 A 
HETATM   15  N   LIG     1      56.817 -11.649  55.294  1.00  0.00    -0.227 NA
BRANCH  13  16
HETATM   16  C   LIG     1      54.022 -10.266  57.487  1.00  0.00     0.278 C 
BRANCH  16  17
HETATM   17  N   LIG     1      52.815 -11.068  57.743  1.00  0.00     0.146 N 
HETATM   18  C   LIG     1      51.618 -10.367  57.222  1.00  0.00     0.286 C 
HETATM   19  C   LIG     1      51.181  -9.132  58.051  1.00  0.00     0.285 C 
HETATM   20  N   LIG     1      50.994  -9.377  59.497  1.00  0.00     0.141 N 
HETATM   21  C   LIG     1      52.176 -10.106  60.017  1.00  0.00     0.285 C 
HETATM   22  C   LIG     1      52.592 -11.342  59.180  1.00  0.00     0.286 C 
BRANCH  20  23
HETATM   23  C   LIG     1      49.758 -10.113  59.812  1.00  0.00     0.251 C 
HETATM   24  C   LIG     1      48.623  -9.237  60.334  1.00  0.00     0.037 C 
ENDBRANCH  20  23
ENDBRANCH  16  17
ENDBRANCH  13  16
ENDBRANCH   8  10
ENDBRANCH   5   8
BRANCH   4  25
HETATM   25  C   LIG     1      55.663 -16.603  53.281  1.00  0.00     0.024 A 
HETATM   26  C   LIG     1      56.189 -17.903  53.329  1.00  0.00     0.033 A 
HETATM   27  C   LIG     1      55.603 -18.914  54.094  1.00  0.00     0.159 A 
HETATM   28  C   LIG     1      54.455 -18.645  54.848  1.00  0.00     0.126 A 
HETATM   29  F   LIG     1      56.157 -20.134  54.088  1.00  0.00    -0.203 F 
HETATM   30  C   LIG     1      53.913 -17.365  54.830  1.00  0.00     0.081 A 
HETATM   31  N   LIG     1      53.725 -19.476  55.646  1.00  0.00    -0.229 NA
HETATM   32  N   LIG     1      52.813 -17.443  55.681  1.00  0.00    -0.317 N 
HETATM   33  C   LIG     1      54.498 -16.335  54.054  1.00  0.00     0.021 A 
HETATM   34  C   LIG     1      52.736 -18.754  56.124  1.00  0.00     0.121 A 
HETATM   35  C   LIG     1      51.702 -19.324  57.023  1.00  0.00     0.072 C 
BRANCH  32  36
HETATM   36  C   LIG     1      51.944 -16.317  56.032  1.00  0.00     0.087 C 
HETATM   37  C   LIG     1      52.473 -15.411  57.151  1.00  0.00     0.025 C 
HETATM   38  C   LIG     1      50.516 -16.758  56.362  1.00  0.00     0.025 C 
ENDBRANCH  32  36
ENDBRANCH   4  25
TORSDOF 7
ENDMDL
