MODEL 1
REMARK VINA RESULT:      -8.0      0.000      0.000
REMARK  7 active torsions:
REMARK  status: ('A' for Active; 'I' for Inactive)
REMARK    1  A    between atoms: C_4  and  C_25 
REMARK    2  A    between atoms: C_5  and  N_8 
REMARK    3  A    between atoms: N_8  and  C_10 
REMARK    4  A    between atoms: C_13  and  C_16 
REMARK    5  A    between atoms: C_16  and  N_17 
REMARK    6  A    between atoms: N_20  and  C_23 
REMARK    7  A    between atoms: N_28  and  C_36 
ROOT
HETATM    1  F   LIG     1     -11.362 -10.966  -0.328  1.00  0.00    -0.201 F 
HETATM    2  N   LIG     1     -12.677  -8.889  -2.974  1.00  0.00    -0.059 NA
HETATM    3  N   LIG     1     -14.407  -9.430  -1.461  1.00  0.00    -0.057 NA
HETATM    4  C   LIG     1     -11.775  -9.601  -2.263  1.00  0.00     0.129 A 
HETATM    5  C   LIG     1     -13.961  -8.805  -2.565  1.00  0.00     0.729 A 
HETATM    6  C   LIG     1     -12.174 -10.249  -1.105  1.00  0.00     0.178 A 
HETATM    7  C   LIG     1     -13.499 -10.126  -0.753  1.00  0.00     0.149 A 
ENDROOT
BRANCH   5   8
HETATM    8  N   LIG     1     -14.873  -8.061  -3.293  1.00  0.00    -0.170 N 
HETATM    9  H   LIG     1     -15.539  -7.570  -2.713  1.00  0.00     0.186 HD
BRANCH   8  10
HETATM   10  C   LIG     1     -15.276  -8.207  -4.617  1.00  0.00     0.156 A 
HETATM   11  C   LIG     1     -15.365  -7.118  -5.480  1.00  0.00     0.037 A 
HETATM   12  C   LIG     1     -15.682  -7.304  -6.817  1.00  0.00     0.002 A 
HETATM   13  C   LIG     1     -15.963  -8.584  -7.278  1.00  0.00     0.030 A 
HETATM   14  C   LIG     1     -15.919  -9.613  -6.346  1.00  0.00     0.098 A 
HETATM   15  N   LIG     1     -15.585  -9.451  -5.039  1.00  0.00    -0.227 NA
BRANCH  13  16
HETATM   16  C   LIG     1     -16.310  -8.807  -8.725  1.00  0.00     0.278 C 
BRANCH  16  17
HETATM   17  N   LIG     1     -15.357  -8.216  -9.679  1.00  0.00     0.146 N 
HETATM   18  C   LIG     1     -16.058  -7.833 -10.927  1.00  0.00     0.286 C 
HETATM   19  C   LIG     1     -16.478  -9.026 -11.824  1.00  0.00     0.285 C 
HETATM   20  N   LIG     1     -15.396  -9.974 -12.161  1.00  0.00     0.141 N 
HETATM   21  C   LIG     1     -14.671 -10.337 -10.919  1.00  0.00     0.285 C 
HETATM   22  C   LIG     1     -14.251  -9.131 -10.040  1.00  0.00     0.286 C 
BRANCH  20  23
HETATM   23  C   LIG     1     -14.455  -9.455 -13.170  1.00  0.00     0.251 C 
HETATM   24  C   LIG     1     -13.932 -10.512 -14.139  1.00  0.00     0.037 C 
ENDBRANCH  20  23
ENDBRANCH  16  17
ENDBRANCH  13  16
ENDBRANCH   8  10
ENDBRANCH   5   8
BRANCH   4  25
HETATM   25  C   LIG     1     -10.381  -9.589  -2.820  1.00  0.00     0.024 A 
HETATM   26  C   LIG     1      -9.683  -8.386  -3.011  1.00  0.00     0.033 A 
HETATM   27  C   LIG     1      -8.389  -8.355  -3.536  1.00  0.00     0.159 A 
HETATM   28  C   LIG     1      -7.746  -9.547  -3.887  1.00  0.00     0.126 A 
HETATM   29  F   LIG     1      -7.786  -7.169  -3.696  1.00  0.00    -0.203 F 
HETATM   30  C   LIG     1      -8.406 -10.756  -3.702  1.00  0.00     0.081 A 
HETATM   31  N   LIG     1      -6.506  -9.741  -4.419  1.00  0.00    -0.229 NA
HETATM   32  N   LIG     1      -7.495 -11.717  -4.131  1.00  0.00    -0.317 N 
HETATM   33  C   LIG     1      -9.720 -10.798  -3.175  1.00  0.00     0.021 A 
HETATM   34  C   LIG     1      -6.371 -11.040  -4.578  1.00  0.00     0.121 A 
HETATM   35  C   LIG     1      -5.148 -11.643  -5.164  1.00  0.00     0.072 C 
BRANCH  32  36
HETATM   36  C   LIG     1      -7.715 -13.165  -4.078  1.00  0.00     0.087 C 
HETATM   37  C   LIG     1      -8.899 -13.675  -4.910  1.00  0.00     0.025 C 
HETATM   38  C   LIG     1      -7.834 -13.688  -2.645  1.00  0.00     0.025 C 
ENDBRANCH  32  36
ENDBRANCH   4  25
TORSDOF 7
ENDMDL
MODEL 2
REMARK VINA RESULT:      -7.7      5.446     10.007
REMARK  7 active torsions:
REMARK  status: ('A' for Active; 'I' for Inactive)
REMARK    1  A    between atoms: C_4  and  C_25 
REMARK    2  A    between atoms: C_5  and  N_8 
REMARK    3  A    between atoms: N_8  and  C_10 
REMARK    4  A    between atoms: C_13  and  C_16 
REMARK    5  A    between atoms: C_16  and  N_17 
REMARK    6  A    between atoms: N_20  and  C_23 
REMARK    7  A    between atoms: N_28  and  C_36 
ROOT
HETATM    1  F   LIG     1      -9.281  -7.138  -4.043  1.00  0.00    -0.201 F 
HETATM    2  N   LIG     1      -6.468  -9.404  -3.999  1.00  0.00    -0.059 NA
HETATM    3  N   LIG     1      -5.705  -7.206  -4.400  1.00  0.00    -0.057 NA
HETATM    4  C   LIG     1      -7.754  -8.993  -3.936  1.00  0.00     0.129 A 
HETATM    5  C   LIG     1      -5.474  -8.518  -4.217  1.00  0.00     0.729 A 
HETATM    6  C   LIG     1      -8.049  -7.648  -4.097  1.00  0.00     0.178 A 
HETATM    7  C   LIG     1      -6.987  -6.804  -4.323  1.00  0.00     0.149 A 
ENDROOT
BRANCH   5   8
HETATM    8  N   LIG     1      -4.159  -8.950  -4.264  1.00  0.00    -0.170 N 
HETATM    9  H   LIG     1      -3.579  -8.533  -3.549  1.00  0.00     0.186 HD
BRANCH   8  10
HETATM   10  C   LIG     1      -3.445  -9.493  -5.327  1.00  0.00     0.156 A 
HETATM   11  C   LIG     1      -2.898  -8.693  -6.327  1.00  0.00     0.037 A 
HETATM   12  C   LIG     1      -2.115  -9.252  -7.326  1.00  0.00     0.002 A 
HETATM   13  C   LIG     1      -1.924 -10.627  -7.351  1.00  0.00     0.030 A 
HETATM   14  C   LIG     1      -2.553 -11.369  -6.359  1.00  0.00     0.098 A 
HETATM   15  N   LIG     1      -3.302 -10.835  -5.359  1.00  0.00    -0.227 NA
BRANCH  13  16
HETATM   16  C   LIG     1      -1.078 -11.254  -8.426  1.00  0.00     0.278 C 
BRANCH  16  17
HETATM   17  N   LIG     1      -1.581 -11.048  -9.795  1.00  0.00     0.146 N 
HETATM   18  C   LIG     1      -2.825 -11.827 -10.001  1.00  0.00     0.286 C 
HETATM   19  C   LIG     1      -2.615 -13.358 -10.126  1.00  0.00     0.285 C 
HETATM   20  N   LIG     1      -1.620 -13.779 -11.134  1.00  0.00     0.141 N 
HETATM   21  C   LIG     1      -0.383 -12.980 -10.951  1.00  0.00     0.285 C 
HETATM   22  C   LIG     1      -0.613 -11.452 -10.838  1.00  0.00     0.286 C 
BRANCH  20  23
HETATM   23  C   LIG     1      -2.105 -13.662 -12.521  1.00  0.00     0.251 C 
HETATM   24  C   LIG     1      -3.210 -14.650 -12.882  1.00  0.00     0.037 C 
ENDBRANCH  20  23
ENDBRANCH  16  17
ENDBRANCH  13  16
ENDBRANCH   8  10
ENDBRANCH   5   8
BRANCH   4  25
HETATM   25  C   LIG     1      -8.753 -10.079  -3.666  1.00  0.00     0.024 A 
HETATM   26  C   LIG     1      -8.591 -11.367  -4.201  1.00  0.00     0.033 A 
HETATM   27  C   LIG     1      -9.515 -12.388  -3.968  1.00  0.00     0.159 A 
HETATM   28  C   LIG     1     -10.643 -12.146  -3.178  1.00  0.00     0.126 A 
HETATM   29  F   LIG     1      -9.299 -13.592  -4.516  1.00  0.00    -0.203 F 
HETATM   30  C   LIG     1     -10.829 -10.884  -2.625  1.00  0.00     0.081 A 
HETATM   31  N   LIG     1     -11.662 -12.986  -2.836  1.00  0.00    -0.229 NA
HETATM   32  N   LIG     1     -12.014 -10.993  -1.902  1.00  0.00    -0.317 N 
HETATM   33  C   LIG     1      -9.901  -9.841  -2.860  1.00  0.00     0.021 A 
HETATM   34  C   LIG     1     -12.485 -12.283  -2.089  1.00  0.00     0.121 A 
HETATM   35  C   LIG     1     -13.741 -12.854  -1.543  1.00  0.00     0.072 C 
BRANCH  32  36
HETATM   36  C   LIG     1     -12.602  -9.925  -1.089  1.00  0.00     0.087 C 
HETATM   37  C   LIG     1     -12.878 -10.298   0.373  1.00  0.00     0.025 C 
HETATM   38  C   LIG     1     -13.868  -9.339  -1.717  1.00  0.00     0.025 C 
ENDBRANCH  32  36
ENDBRANCH   4  25
TORSDOF 7
ENDMDL
MODEL 3
REMARK VINA RESULT:      -7.6      5.572      9.607
REMARK  7 active torsions:
REMARK  status: ('A' for Active; 'I' for Inactive)
REMARK    1  A    between atoms: C_4  and  C_25 
REMARK    2  A    between atoms: C_5  and  N_8 
REMARK    3  A    between atoms: N_8  and  C_10 
REMARK    4  A    between atoms: C_13  and  C_16 
REMARK    5  A    between atoms: C_16  and  N_17 
REMARK    6  A    between atoms: N_20  and  C_23 
REMARK    7  A    between atoms: N_28  and  C_36 
ROOT
HETATM    1  F   LIG     1      -9.366  -6.671  -4.043  1.00  0.00    -0.201 F 
HETATM    2  N   LIG     1      -6.754  -9.154  -3.790  1.00  0.00    -0.059 NA
HETATM    3  N   LIG     1      -5.817  -7.086  -4.435  1.00  0.00    -0.057 NA
HETATM    4  C   LIG     1      -7.999  -8.629  -3.756  1.00  0.00     0.129 A 
HETATM    5  C   LIG     1      -5.694  -8.385  -4.114  1.00  0.00     0.729 A 
HETATM    6  C   LIG     1      -8.184  -7.288  -4.057  1.00  0.00     0.178 A 
HETATM    7  C   LIG     1      -7.058  -6.568  -4.385  1.00  0.00     0.149 A 
ENDROOT
BRANCH   5   8
HETATM    8  N   LIG     1      -4.421  -8.931  -4.131  1.00  0.00    -0.170 N 
HETATM    9  H   LIG     1      -3.845  -8.619  -3.362  1.00  0.00     0.186 HD
BRANCH   8  10
HETATM   10  C   LIG     1      -3.703  -9.465  -5.196  1.00  0.00     0.156 A 
HETATM   11  C   LIG     1      -2.978  -8.658  -6.068  1.00  0.00     0.037 A 
HETATM   12  C   LIG     1      -2.198  -9.223  -7.066  1.00  0.00     0.002 A 
HETATM   13  C   LIG     1      -2.189 -10.602  -7.223  1.00  0.00     0.030 A 
HETATM   14  C   LIG     1      -2.987 -11.341  -6.358  1.00  0.00     0.098 A 
HETATM   15  N   LIG     1      -3.736 -10.805  -5.359  1.00  0.00    -0.227 NA
BRANCH  13  16
HETATM   16  C   LIG     1      -1.350 -11.236  -8.300  1.00  0.00     0.278 C 
BRANCH  16  17
HETATM   17  N   LIG     1      -1.785 -10.926  -9.672  1.00  0.00     0.146 N 
HETATM   18  C   LIG     1      -2.947 -11.769 -10.039  1.00  0.00     0.286 C 
HETATM   19  C   LIG     1      -2.607 -13.259 -10.302  1.00  0.00     0.285 C 
HETATM   20  N   LIG     1      -1.522 -13.496 -11.277  1.00  0.00     0.141 N 
HETATM   21  C   LIG     1      -0.367 -12.632 -10.931  1.00  0.00     0.285 C 
HETATM   22  C   LIG     1      -0.726 -11.145 -10.682  1.00  0.00     0.286 C 
BRANCH  20  23
HETATM   23  C   LIG     1      -1.930 -13.271 -12.674  1.00  0.00     0.251 C 
HETATM   24  C   LIG     1      -2.939 -14.288 -13.203  1.00  0.00     0.037 C 
ENDBRANCH  20  23
ENDBRANCH  16  17
ENDBRANCH  13  16
ENDBRANCH   8  10
ENDBRANCH   5   8
BRANCH   4  25
HETATM   25  C   LIG     1      -9.080  -9.590  -3.358  1.00  0.00     0.024 A 
HETATM   26  C   LIG     1     -10.187  -9.170  -2.603  1.00  0.00     0.033 A 
HETATM   27  C   LIG     1     -11.198 -10.052  -2.216  1.00  0.00     0.159 A 
HETATM   28  C   LIG     1     -11.131 -11.400  -2.582  1.00  0.00     0.126 A 
HETATM   29  F   LIG     1     -12.222  -9.582  -1.491  1.00  0.00    -0.203 F 
HETATM   30  C   LIG     1     -10.053 -11.847  -3.338  1.00  0.00     0.081 A 
HETATM   31  N   LIG     1     -11.992 -12.421  -2.305  1.00  0.00    -0.229 NA
HETATM   32  N   LIG     1     -10.304 -13.203  -3.532  1.00  0.00    -0.317 N 
HETATM   33  C   LIG     1      -9.020 -10.962  -3.731  1.00  0.00     0.021 A 
HETATM   34  C   LIG     1     -11.481 -13.498  -2.861  1.00  0.00     0.121 A 
HETATM   35  C   LIG     1     -12.128 -14.828  -2.752  1.00  0.00     0.072 C 
BRANCH  32  36
HETATM   36  C   LIG     1      -9.467 -14.106  -4.326  1.00  0.00     0.087 C 
HETATM   37  C   LIG     1      -8.066 -14.364  -3.758  1.00  0.00     0.025 C 
HETATM   38  C   LIG     1      -9.354 -13.667  -5.788  1.00  0.00     0.025 C 
ENDBRANCH  32  36
ENDBRANCH   4  25
TORSDOF 7
ENDMDL
MODEL 4
REMARK VINA RESULT:      -7.5      5.912      9.172
REMARK  7 active torsions:
REMARK  status: ('A' for Active; 'I' for Inactive)
REMARK    1  A    between atoms: C_4  and  C_25 
REMARK    2  A    between atoms: C_5  and  N_8 
REMARK    3  A    between atoms: N_8  and  C_10 
REMARK    4  A    between atoms: C_13  and  C_16 
REMARK    5  A    between atoms: C_16  and  N_17 
REMARK    6  A    between atoms: N_20  and  C_23 
REMARK    7  A    between atoms: N_28  and  C_36 
ROOT
HETATM    1  F   LIG     1      -2.570  -6.689  -7.461  1.00  0.00    -0.201 F 
HETATM    2  N   LIG     1      -4.594  -8.038  -4.791  1.00  0.00    -0.059 NA
HETATM    3  N   LIG     1      -5.312  -5.846  -5.296  1.00  0.00    -0.057 NA
HETATM    4  C   LIG     1      -3.626  -7.984  -5.732  1.00  0.00     0.129 A 
HETATM    5  C   LIG     1      -5.419  -6.987  -4.594  1.00  0.00     0.729 A 
HETATM    6  C   LIG     1      -3.484  -6.839  -6.501  1.00  0.00     0.178 A 
HETATM    7  C   LIG     1      -4.355  -5.807  -6.241  1.00  0.00     0.149 A 
ENDROOT
BRANCH   5   8
HETATM    8  N   LIG     1      -6.416  -7.060  -3.635  1.00  0.00    -0.170 N 
HETATM    9  H   LIG     1      -6.199  -6.540  -2.797  1.00  0.00     0.186 HD
BRANCH   8  10
HETATM   10  C   LIG     1      -7.410  -8.019  -3.466  1.00  0.00     0.156 A 
HETATM   11  C   LIG     1      -8.586  -7.739  -2.776  1.00  0.00     0.037 A 
HETATM   12  C   LIG     1      -9.599  -8.684  -2.699  1.00  0.00     0.002 A 
HETATM   13  C   LIG     1      -9.407  -9.934  -3.273  1.00  0.00     0.030 A 
HETATM   14  C   LIG     1      -8.183 -10.164  -3.889  1.00  0.00     0.098 A 
HETATM   15  N   LIG     1      -7.192  -9.241  -3.995  1.00  0.00    -0.227 NA
BRANCH  13  16
HETATM   16  C   LIG     1     -10.492 -10.974  -3.201  1.00  0.00     0.278 C 
BRANCH  16  17
HETATM   17  N   LIG     1     -11.509 -10.724  -2.166  1.00  0.00     0.146 N 
HETATM   18  C   LIG     1     -11.256 -11.585  -0.987  1.00  0.00     0.286 C 
HETATM   19  C   LIG     1     -11.594 -13.084  -1.198  1.00  0.00     0.285 C 
HETATM   20  N   LIG     1     -12.956 -13.358  -1.702  1.00  0.00     0.141 N 
HETATM   21  C   LIG     1     -13.225 -12.476  -2.864  1.00  0.00     0.285 C 
HETATM   22  C   LIG     1     -12.890 -10.981  -2.631  1.00  0.00     0.286 C 
BRANCH  20  23
HETATM   23  C   LIG     1     -14.005 -13.194  -0.680  1.00  0.00     0.251 C 
HETATM   24  C   LIG     1     -13.715 -13.912   0.634  1.00  0.00     0.037 C 
ENDBRANCH  20  23
ENDBRANCH  16  17
ENDBRANCH  13  16
ENDBRANCH   8  10
ENDBRANCH   5   8
BRANCH   4  25
HETATM   25  C   LIG     1      -2.798  -9.229  -5.859  1.00  0.00     0.024 A 
HETATM   26  C   LIG     1      -2.657  -9.887  -7.091  1.00  0.00     0.033 A 
HETATM   27  C   LIG     1      -1.898 -11.052  -7.227  1.00  0.00     0.159 A 
HETATM   28  C   LIG     1      -1.246 -11.597  -6.116  1.00  0.00     0.126 A 
HETATM   29  F   LIG     1      -1.811 -11.630  -8.433  1.00  0.00    -0.203 F 
HETATM   30  C   LIG     1      -1.358 -10.964  -4.883  1.00  0.00     0.081 A 
HETATM   31  N   LIG     1      -0.473 -12.717  -6.024  1.00  0.00    -0.229 NA
HETATM   32  N   LIG     1      -0.592 -11.746  -4.021  1.00  0.00    -0.317 N 
HETATM   33  C   LIG     1      -2.129  -9.786  -4.734  1.00  0.00     0.021 A 
HETATM   34  C   LIG     1      -0.102 -12.808  -4.766  1.00  0.00     0.121 A 
HETATM   35  C   LIG     1       0.738 -13.926  -4.267  1.00  0.00     0.072 C 
BRANCH  32  36
HETATM   36  C   LIG     1      -0.355 -11.449  -2.606  1.00  0.00     0.087 C 
HETATM   37  C   LIG     1       1.119 -11.432  -2.183  1.00  0.00     0.025 C 
HETATM   38  C   LIG     1      -1.146 -12.369  -1.673  1.00  0.00     0.025 C 
ENDBRANCH  32  36
ENDBRANCH   4  25
TORSDOF 7
ENDMDL
MODEL 5
REMARK VINA RESULT:      -7.5      5.346     12.239
REMARK  7 active torsions:
REMARK  status: ('A' for Active; 'I' for Inactive)
REMARK    1  A    between atoms: C_4  and  C_25 
REMARK    2  A    between atoms: C_5  and  N_8 
REMARK    3  A    between atoms: N_8  and  C_10 
REMARK    4  A    between atoms: C_13  and  C_16 
REMARK    5  A    between atoms: C_16  and  N_17 
REMARK    6  A    between atoms: N_20  and  C_23 
REMARK    7  A    between atoms: N_28  and  C_36 
ROOT
HETATM    1  F   LIG     1      -8.742  -6.993  -4.422  1.00  0.00    -0.201 F 
HETATM    2  N   LIG     1      -5.815  -9.110  -4.388  1.00  0.00    -0.059 NA
HETATM    3  N   LIG     1      -5.171  -6.880  -4.817  1.00  0.00    -0.057 NA
HETATM    4  C   LIG     1      -7.119  -8.765  -4.316  1.00  0.00     0.129 A 
HETATM    5  C   LIG     1      -4.870  -8.175  -4.625  1.00  0.00     0.729 A 
HETATM    6  C   LIG     1      -7.486  -7.439  -4.485  1.00  0.00     0.178 A 
HETATM    7  C   LIG     1      -6.471  -6.543  -4.730  1.00  0.00     0.149 A 
ENDROOT
BRANCH   5   8
HETATM    8  N   LIG     1      -3.535  -8.539  -4.682  1.00  0.00    -0.170 N 
HETATM    9  H   LIG     1      -2.988  -7.944  -5.288  1.00  0.00     0.186 HD
BRANCH   8  10
HETATM   10  C   LIG     1      -2.941  -9.767  -4.409  1.00  0.00     0.156 A 
HETATM   11  C   LIG     1      -2.818 -10.754  -5.382  1.00  0.00     0.037 A 
HETATM   12  C   LIG     1      -2.141 -11.934  -5.107  1.00  0.00     0.002 A 
HETATM   13  C   LIG     1      -1.633 -12.144  -3.832  1.00  0.00     0.030 A 
HETATM   14  C   LIG     1      -1.850 -11.144  -2.893  1.00  0.00     0.098 A 
HETATM   15  N   LIG     1      -2.488  -9.973  -3.154  1.00  0.00    -0.227 NA
BRANCH  13  16
HETATM   16  C   LIG     1      -0.896 -13.417  -3.512  1.00  0.00     0.278 C 
BRANCH  16  17
HETATM   17  N   LIG     1       0.359 -13.599  -4.260  1.00  0.00     0.146 N 
HETATM   18  C   LIG     1       0.858 -14.983  -4.086  1.00  0.00     0.286 C 
HETATM   19  C   LIG     1       1.450 -15.285  -2.685  1.00  0.00     0.285 C 
HETATM   20  N   LIG     1       2.492 -14.343  -2.224  1.00  0.00     0.141 N 
HETATM   21  C   LIG     1       2.010 -12.955  -2.426  1.00  0.00     0.285 C 
HETATM   22  C   LIG     1       1.431 -12.671  -3.835  1.00  0.00     0.286 C 
BRANCH  20  23
HETATM   23  C   LIG     1       3.792 -14.536  -2.892  1.00  0.00     0.251 C 
HETATM   24  C   LIG     1       4.188 -15.997  -3.082  1.00  0.00     0.037 C 
ENDBRANCH  20  23
ENDBRANCH  16  17
ENDBRANCH  13  16
ENDBRANCH   8  10
ENDBRANCH   5   8
BRANCH   4  25
HETATM   25  C   LIG     1      -8.058  -9.900  -4.025  1.00  0.00     0.024 A 
HETATM   26  C   LIG     1      -7.788 -11.202  -4.475  1.00  0.00     0.033 A 
HETATM   27  C   LIG     1      -8.654 -12.268  -4.222  1.00  0.00     0.159 A 
HETATM   28  C   LIG     1      -9.832 -12.058  -3.497  1.00  0.00     0.126 A 
HETATM   29  F   LIG     1      -8.335 -13.483  -4.687  1.00  0.00    -0.203 F 
HETATM   30  C   LIG     1     -10.124 -10.781  -3.029  1.00  0.00     0.081 A 
HETATM   31  N   LIG     1     -10.810 -12.943  -3.151  1.00  0.00    -0.229 NA
HETATM   32  N   LIG     1     -11.333 -10.929  -2.353  1.00  0.00    -0.317 N 
HETATM   33  C   LIG     1      -9.256  -9.693  -3.285  1.00  0.00     0.021 A 
HETATM   34  C   LIG     1     -11.711 -12.257  -2.484  1.00  0.00     0.121 A 
HETATM   35  C   LIG     1     -12.952 -12.879  -1.959  1.00  0.00     0.072 C 
BRANCH  32  36
HETATM   36  C   LIG     1     -12.026  -9.859  -1.631  1.00  0.00     0.087 C 
HETATM   37  C   LIG     1     -12.462 -10.213  -0.203  1.00  0.00     0.025 C 
HETATM   38  C   LIG     1     -13.222  -9.305  -2.409  1.00  0.00     0.025 C 
ENDBRANCH  32  36
ENDBRANCH   4  25
TORSDOF 7
ENDMDL
MODEL 6
REMARK VINA RESULT:      -7.5      5.681      9.145
REMARK  7 active torsions:
REMARK  status: ('A' for Active; 'I' for Inactive)
REMARK    1  A    between atoms: C_4  and  C_25 
REMARK    2  A    between atoms: C_5  and  N_8 
REMARK    3  A    between atoms: N_8  and  C_10 
REMARK    4  A    between atoms: C_13  and  C_16 
REMARK    5  A    between atoms: C_16  and  N_17 
REMARK    6  A    between atoms: N_20  and  C_23 
REMARK    7  A    between atoms: N_28  and  C_36 
ROOT
HETATM    1  F   LIG     1      -2.431  -7.117  -7.430  1.00  0.00    -0.201 F 
HETATM    2  N   LIG     1      -4.388  -8.395  -4.676  1.00  0.00    -0.059 NA
HETATM    3  N   LIG     1      -5.040  -6.175  -5.144  1.00  0.00    -0.057 NA
HETATM    4  C   LIG     1      -3.461  -8.376  -5.659  1.00  0.00     0.129 A 
HETATM    5  C   LIG     1      -5.161  -7.313  -4.441  1.00  0.00     0.729 A 
HETATM    6  C   LIG     1      -3.307  -7.235  -6.431  1.00  0.00     0.178 A 
HETATM    7  C   LIG     1      -4.123  -6.170  -6.130  1.00  0.00     0.149 A 
ENDROOT
BRANCH   5   8
HETATM    8  N   LIG     1      -6.117  -7.350  -3.440  1.00  0.00    -0.170 N 
HETATM    9  H   LIG     1      -5.759  -7.068  -2.539  1.00  0.00     0.186 HD
BRANCH   8  10
HETATM   10  C   LIG     1      -7.302  -8.077  -3.376  1.00  0.00     0.156 A 
HETATM   11  C   LIG     1      -7.459  -9.282  -4.054  1.00  0.00     0.037 A 
HETATM   12  C   LIG     1      -8.617 -10.031  -3.900  1.00  0.00     0.002 A 
HETATM   13  C   LIG     1      -9.642  -9.541  -3.103  1.00  0.00     0.030 A 
HETATM   14  C   LIG     1      -9.442  -8.301  -2.509  1.00  0.00     0.098 A 
HETATM   15  N   LIG     1      -8.304  -7.567  -2.629  1.00  0.00    -0.227 NA
BRANCH  13  16
HETATM   16  C   LIG     1     -10.907 -10.336  -2.923  1.00  0.00     0.278 C 
BRANCH  16  17
HETATM   17  N   LIG     1     -11.852  -9.766  -1.948  1.00  0.00     0.146 N 
HETATM   18  C   LIG     1     -11.918 -10.626  -0.743  1.00  0.00     0.286 C 
HETATM   19  C   LIG     1     -12.671 -11.966  -0.946  1.00  0.00     0.285 C 
HETATM   20  N   LIG     1     -14.029 -11.847  -1.518  1.00  0.00     0.141 N 
HETATM   21  C   LIG     1     -13.973 -10.962  -2.707  1.00  0.00     0.285 C 
HETATM   22  C   LIG     1     -13.225  -9.624  -2.482  1.00  0.00     0.286 C 
BRANCH  20  23
HETATM   23  C   LIG     1     -15.029 -11.350  -0.557  1.00  0.00     0.251 C 
HETATM   24  C   LIG     1     -15.650 -12.436   0.317  1.00  0.00     0.037 C 
ENDBRANCH  20  23
ENDBRANCH  16  17
ENDBRANCH  13  16
ENDBRANCH   8  10
ENDBRANCH   5   8
BRANCH   4  25
HETATM   25  C   LIG     1      -2.690  -9.652  -5.825  1.00  0.00     0.024 A 
HETATM   26  C   LIG     1      -2.018 -10.244  -4.744  1.00  0.00     0.033 A 
HETATM   27  C   LIG     1      -1.288 -11.426  -4.881  1.00  0.00     0.159 A 
HETATM   28  C   LIG     1      -1.211 -12.062  -6.124  1.00  0.00     0.126 A 
HETATM   29  F   LIG     1      -0.667 -11.931  -3.806  1.00  0.00    -0.203 F 
HETATM   30  C   LIG     1      -1.872 -11.508  -7.215  1.00  0.00     0.081 A 
HETATM   31  N   LIG     1      -0.553 -13.203  -6.478  1.00  0.00    -0.229 NA
HETATM   32  N   LIG     1      -1.603 -12.383  -8.264  1.00  0.00    -0.317 N 
HETATM   33  C   LIG     1      -2.611 -10.307  -7.087  1.00  0.00     0.021 A 
HETATM   34  C   LIG     1      -0.778 -13.377  -7.762  1.00  0.00     0.121 A 
HETATM   35  C   LIG     1      -0.198 -14.513  -8.521  1.00  0.00     0.072 C 
BRANCH  32  36
HETATM   36  C   LIG     1      -2.136 -12.251  -9.623  1.00  0.00     0.087 C 
HETATM   37  C   LIG     1      -1.576 -11.074 -10.431  1.00  0.00     0.025 C 
HETATM   38  C   LIG     1      -3.666 -12.210  -9.651  1.00  0.00     0.025 C 
ENDBRANCH  32  36
ENDBRANCH   4  25
TORSDOF 7
ENDMDL
MODEL 7
REMARK VINA RESULT:      -7.2      3.858     11.513
REMARK  7 active torsions:
REMARK  status: ('A' for Active; 'I' for Inactive)
REMARK    1  A    between atoms: C_4  and  C_25 
REMARK    2  A    between atoms: C_5  and  N_8 
REMARK    3  A    between atoms: N_8  and  C_10 
REMARK    4  A    between atoms: C_13  and  C_16 
REMARK    5  A    between atoms: C_16  and  N_17 
REMARK    6  A    between atoms: N_20  and  C_23 
REMARK    7  A    between atoms: N_28  and  C_36 
ROOT
HETATM    1  F   LIG     1      -9.630  -7.287  -3.225  1.00  0.00    -0.201 F 
HETATM    2  N   LIG     1      -9.452 -10.895  -3.283  1.00  0.00    -0.059 NA
HETATM    3  N   LIG     1      -7.524  -9.993  -4.305  1.00  0.00    -0.057 NA
HETATM    4  C   LIG     1      -9.953  -9.663  -3.042  1.00  0.00     0.129 A 
HETATM    5  C   LIG     1      -8.257 -11.042  -3.894  1.00  0.00     0.729 A 
HETATM    6  C   LIG     1      -9.231  -8.544  -3.426  1.00  0.00     0.178 A 
HETATM    7  C   LIG     1      -8.025  -8.770  -4.049  1.00  0.00     0.149 A 
ENDROOT
BRANCH   5   8
HETATM    8  N   LIG     1      -7.747 -12.309  -4.122  1.00  0.00    -0.170 N 
HETATM    9  H   LIG     1      -8.455 -13.029  -4.111  1.00  0.00     0.186 HD
BRANCH   8  10
HETATM   10  C   LIG     1      -6.452 -12.786  -3.944  1.00  0.00     0.156 A 
HETATM   11  C   LIG     1      -5.937 -13.050  -2.678  1.00  0.00     0.037 A 
HETATM   12  C   LIG     1      -4.675 -13.610  -2.535  1.00  0.00     0.002 A 
HETATM   13  C   LIG     1      -3.908 -13.856  -3.666  1.00  0.00     0.030 A 
HETATM   14  C   LIG     1      -4.462 -13.507  -4.892  1.00  0.00     0.098 A 
HETATM   15  N   LIG     1      -5.705 -12.982  -5.051  1.00  0.00    -0.227 NA
BRANCH  13  16
HETATM   16  C   LIG     1      -2.537 -14.462  -3.533  1.00  0.00     0.278 C 
BRANCH  16  17
HETATM   17  N   LIG     1      -1.607 -13.687  -2.695  1.00  0.00     0.146 N 
HETATM   18  C   LIG     1      -1.171 -12.467  -3.415  1.00  0.00     0.286 C 
HETATM   19  C   LIG     1      -0.178 -12.724  -4.578  1.00  0.00     0.285 C 
HETATM   20  N   LIG     1       1.017 -13.518  -4.224  1.00  0.00     0.141 N 
HETATM   21  C   LIG     1       0.588 -14.725  -3.476  1.00  0.00     0.285 C 
HETATM   22  C   LIG     1      -0.396 -14.447  -2.312  1.00  0.00     0.286 C 
BRANCH  20  23
HETATM   23  C   LIG     1       2.015 -12.762  -3.447  1.00  0.00     0.251 C 
HETATM   24  C   LIG     1       3.192 -13.600  -2.957  1.00  0.00     0.037 C 
ENDBRANCH  20  23
ENDBRANCH  16  17
ENDBRANCH  13  16
ENDBRANCH   8  10
ENDBRANCH   5   8
BRANCH   4  25
HETATM   25  C   LIG     1     -11.278  -9.647  -2.338  1.00  0.00     0.024 A 
HETATM   26  C   LIG     1     -11.421 -10.170  -1.043  1.00  0.00     0.033 A 
HETATM   27  C   LIG     1     -12.647 -10.171  -0.375  1.00  0.00     0.159 A 
HETATM   28  C   LIG     1     -13.783  -9.638  -0.993  1.00  0.00     0.126 A 
HETATM   29  F   LIG     1     -12.711 -10.692   0.858  1.00  0.00    -0.203 F 
HETATM   30  C   LIG     1     -13.674  -9.104  -2.272  1.00  0.00     0.081 A 
HETATM   31  N   LIG     1     -15.063  -9.549  -0.532  1.00  0.00    -0.229 NA
HETATM   32  N   LIG     1     -14.959  -8.659  -2.572  1.00  0.00    -0.317 N 
HETATM   33  C   LIG     1     -12.436  -9.102  -2.960  1.00  0.00     0.021 A 
HETATM   34  C   LIG     1     -15.763  -8.980  -1.489  1.00  0.00     0.121 A 
HETATM   35  C   LIG     1     -17.221  -8.735  -1.366  1.00  0.00     0.072 C 
BRANCH  32  36
HETATM   36  C   LIG     1     -15.339  -7.964  -3.805  1.00  0.00     0.087 C 
HETATM   37  C   LIG     1     -16.259  -6.751  -3.611  1.00  0.00     0.025 C 
HETATM   38  C   LIG     1     -15.946  -8.906  -4.847  1.00  0.00     0.025 C 
ENDBRANCH  32  36
ENDBRANCH   4  25
TORSDOF 7
ENDMDL
MODEL 8
REMARK VINA RESULT:      -7.1      5.782     11.224
REMARK  7 active torsions:
REMARK  status: ('A' for Active; 'I' for Inactive)
REMARK    1  A    between atoms: C_4  and  C_25 
REMARK    2  A    between atoms: C_5  and  N_8 
REMARK    3  A    between atoms: N_8  and  C_10 
REMARK    4  A    between atoms: C_13  and  C_16 
REMARK    5  A    between atoms: C_16  and  N_17 
REMARK    6  A    between atoms: N_20  and  C_23 
REMARK    7  A    between atoms: N_28  and  C_36 
ROOT
HETATM    1  F   LIG     1      -5.639  -5.410  -5.388  1.00  0.00    -0.201 F 
HETATM    2  N   LIG     1      -4.406  -8.781  -4.982  1.00  0.00    -0.059 NA
HETATM    3  N   LIG     1      -2.694  -7.415  -5.862  1.00  0.00    -0.057 NA
HETATM    4  C   LIG     1      -5.277  -7.748  -4.956  1.00  0.00     0.129 A 
HETATM    5  C   LIG     1      -3.141  -8.602  -5.419  1.00  0.00     0.729 A 
HETATM    6  C   LIG     1      -4.864  -6.495  -5.382  1.00  0.00     0.178 A 
HETATM    7  C   LIG     1      -3.564  -6.389  -5.821  1.00  0.00     0.149 A 
ENDROOT
BRANCH   5   8
HETATM    8  N   LIG     1      -2.254  -9.665  -5.426  1.00  0.00    -0.170 N 
HETATM    9  H   LIG     1      -1.599  -9.640  -4.658  1.00  0.00     0.186 HD
BRANCH   8  10
HETATM   10  C   LIG     1      -1.854 -10.475  -6.485  1.00  0.00     0.156 A 
HETATM   11  C   LIG     1      -2.121 -10.135  -7.808  1.00  0.00     0.037 A 
HETATM   12  C   LIG     1      -1.632 -10.915  -8.847  1.00  0.00     0.002 A 
HETATM   13  C   LIG     1      -0.919 -12.069  -8.553  1.00  0.00     0.030 A 
HETATM   14  C   LIG     1      -0.748 -12.381  -7.210  1.00  0.00     0.098 A 
HETATM   15  N   LIG     1      -1.197 -11.615  -6.181  1.00  0.00    -0.227 NA
BRANCH  13  16
HETATM   16  C   LIG     1      -0.381 -12.929  -9.665  1.00  0.00     0.278 C 
BRANCH  16  17
HETATM   17  N   LIG     1      -0.468 -12.321 -11.003  1.00  0.00     0.146 N 
HETATM   18  C   LIG     1      -1.289 -13.173 -11.896  1.00  0.00     0.286 C 
HETATM   19  C   LIG     1      -0.599 -14.485 -12.350  1.00  0.00     0.285 C 
HETATM   20  N   LIG     1       0.739 -14.317 -12.954  1.00  0.00     0.141 N 
HETATM   21  C   LIG     1       1.555 -13.440 -12.079  1.00  0.00     0.285 C 
HETATM   22  C   LIG     1       0.852 -12.130 -11.643  1.00  0.00     0.286 C 
BRANCH  20  23
HETATM   23  C   LIG     1       0.701 -13.780 -14.325  1.00  0.00     0.251 C 
HETATM   24  C   LIG     1       2.076 -13.523 -14.935  1.00  0.00     0.037 C 
ENDBRANCH  20  23
ENDBRANCH  16  17
ENDBRANCH  13  16
ENDBRANCH   8  10
ENDBRANCH   5   8
BRANCH   4  25
HETATM   25  C   LIG     1      -6.640  -8.084  -4.426  1.00  0.00     0.024 A 
HETATM   26  C   LIG     1      -7.561  -7.077  -4.095  1.00  0.00     0.033 A 
HETATM   27  C   LIG     1      -8.830  -7.370  -3.592  1.00  0.00     0.159 A 
HETATM   28  C   LIG     1      -9.221  -8.700  -3.406  1.00  0.00     0.126 A 
HETATM   29  F   LIG     1      -9.656  -6.358  -3.293  1.00  0.00    -0.203 F 
HETATM   30  C   LIG     1      -8.336  -9.722  -3.733  1.00  0.00     0.081 A 
HETATM   31  N   LIG     1     -10.394  -9.203  -2.924  1.00  0.00    -0.229 NA
HETATM   32  N   LIG     1      -9.035 -10.891  -3.444  1.00  0.00    -0.317 N 
HETATM   33  C   LIG     1      -7.045  -9.435  -4.238  1.00  0.00     0.021 A 
HETATM   34  C   LIG     1     -10.267 -10.512  -2.933  1.00  0.00     0.121 A 
HETATM   35  C   LIG     1     -11.340 -11.415  -2.450  1.00  0.00     0.072 C 
BRANCH  32  36
HETATM   36  C   LIG     1      -8.533 -12.248  -3.677  1.00  0.00     0.087 C 
HETATM   37  C   LIG     1      -9.255 -13.028  -4.783  1.00  0.00     0.025 C 
HETATM   38  C   LIG     1      -8.494 -13.087  -2.399  1.00  0.00     0.025 C 
ENDBRANCH  32  36
ENDBRANCH   4  25
TORSDOF 7
ENDMDL
MODEL 9
REMARK VINA RESULT:      -7.1      5.562      8.648
REMARK  7 active torsions:
REMARK  status: ('A' for Active; 'I' for Inactive)
REMARK    1  A    between atoms: C_4  and  C_25 
REMARK    2  A    between atoms: C_5  and  N_8 
REMARK    3  A    between atoms: N_8  and  C_10 
REMARK    4  A    between atoms: C_13  and  C_16 
REMARK    5  A    between atoms: C_16  and  N_17 
REMARK    6  A    between atoms: N_20  and  C_23 
REMARK    7  A    between atoms: N_28  and  C_36 
ROOT
HETATM    1  F   LIG     1      -1.758  -7.893  -6.802  1.00  0.00    -0.201 F 
HETATM    2  N   LIG     1      -4.622  -8.154  -4.615  1.00  0.00    -0.059 NA
HETATM    3  N   LIG     1      -4.910  -6.323  -6.078  1.00  0.00    -0.057 NA
HETATM    4  C   LIG     1      -3.418  -8.450  -5.153  1.00  0.00     0.129 A 
HETATM    5  C   LIG     1      -5.346  -7.116  -5.084  1.00  0.00     0.729 A 
HETATM    6  C   LIG     1      -2.927  -7.679  -6.195  1.00  0.00     0.178 A 
HETATM    7  C   LIG     1      -3.716  -6.634  -6.616  1.00  0.00     0.149 A 
ENDROOT
BRANCH   5   8
HETATM    8  N   LIG     1      -6.585  -6.831  -4.534  1.00  0.00    -0.170 N 
HETATM    9  H   LIG     1      -6.653  -5.889  -4.176  1.00  0.00     0.186 HD
BRANCH   8  10
HETATM   10  C   LIG     1      -7.548  -7.699  -4.030  1.00  0.00     0.156 A 
HETATM   11  C   LIG     1      -8.266  -7.405  -2.874  1.00  0.00     0.037 A 
HETATM   12  C   LIG     1      -9.284  -8.245  -2.444  1.00  0.00     0.002 A 
HETATM   13  C   LIG     1      -9.544  -9.413  -3.149  1.00  0.00     0.030 A 
HETATM   14  C   LIG     1      -8.744  -9.674  -4.255  1.00  0.00     0.098 A 
HETATM   15  N   LIG     1      -7.762  -8.850  -4.703  1.00  0.00    -0.227 NA
BRANCH  13  16
HETATM   16  C   LIG     1     -10.642 -10.338  -2.700  1.00  0.00     0.278 C 
BRANCH  16  17
HETATM   17  N   LIG     1     -11.659  -9.706  -1.843  1.00  0.00     0.146 N 
HETATM   18  C   LIG     1     -11.996 -10.600  -0.710  1.00  0.00     0.286 C 
HETATM   19  C   LIG     1     -12.845 -11.840  -1.095  1.00  0.00     0.285 C 
HETATM   20  N   LIG     1     -14.080 -11.548  -1.851  1.00  0.00     0.141 N 
HETATM   21  C   LIG     1     -13.754 -10.629  -2.969  1.00  0.00     0.285 C 
HETATM   22  C   LIG     1     -12.914  -9.392  -2.563  1.00  0.00     0.286 C 
BRANCH  20  23
HETATM   23  C   LIG     1     -15.157 -10.982  -1.020  1.00  0.00     0.251 C 
HETATM   24  C   LIG     1     -15.269 -11.605   0.368  1.00  0.00     0.037 C 
ENDBRANCH  20  23
ENDBRANCH  16  17
ENDBRANCH  13  16
ENDBRANCH   8  10
ENDBRANCH   5   8
BRANCH   4  25
HETATM   25  C   LIG     1      -2.733  -9.642  -4.552  1.00  0.00     0.024 A 
HETATM   26  C   LIG     1      -1.380  -9.595  -4.182  1.00  0.00     0.033 A 
HETATM   27  C   LIG     1      -0.723 -10.697  -3.629  1.00  0.00     0.159 A 
HETATM   28  C   LIG     1      -1.415 -11.895  -3.425  1.00  0.00     0.126 A 
HETATM   29  F   LIG     1       0.572 -10.581  -3.305  1.00  0.00    -0.203 F 
HETATM   30  C   LIG     1      -2.759 -11.973  -3.772  1.00  0.00     0.081 A 
HETATM   31  N   LIG     1      -0.970 -13.080  -2.916  1.00  0.00    -0.229 NA
HETATM   32  N   LIG     1      -3.130 -13.271  -3.430  1.00  0.00    -0.317 N 
HETATM   33  C   LIG     1      -3.432 -10.863  -4.338  1.00  0.00     0.021 A 
HETATM   34  C   LIG     1      -1.997 -13.901  -2.940  1.00  0.00     0.121 A 
HETATM   35  C   LIG     1      -1.895 -15.310  -2.484  1.00  0.00     0.072 C 
BRANCH  32  36
HETATM   36  C   LIG     1      -4.484 -13.817  -3.558  1.00  0.00     0.087 C 
HETATM   37  C   LIG     1      -5.137 -14.253  -2.240  1.00  0.00     0.025 C 
HETATM   38  C   LIG     1      -4.563 -14.960  -4.572  1.00  0.00     0.025 C 
ENDBRANCH  32  36
ENDBRANCH   4  25
TORSDOF 7
ENDMDL
